<routes>
        <vType id="car" accel="0.8" decel="4.5" sigma="0.5" length="5" minGap="2.5" maxSpeed="16.67" guiShape="passenger"/>
        <route id="right" edges="51o 1i 2o 52i" />
        <route id="left" edges="52o 2i 1o 51i" />
        <route id="down" edges="54o 4i 3o 53i" />
        <route id="up" edges="53o 3i 4o 54i" />
    <vehicle id="left_0" type="car" route="left" depart="13" />
    <vehicle id="right_1" type="car" route="right" depart="17" />
    <vehicle id="down_2" type="car" route="up" depart="26" color="1,0,0"/>
    <vehicle id="left_3" type="car" route="left" depart="29" />
    <vehicle id="right_4" type="car" route="right" depart="36" />
    <vehicle id="left_5" type="car" route="left" depart="36" />
    <vehicle id="right_6" type="car" route="right" depart="56" />
    <vehicle id="left_7" type="car" route="left" depart="59" />
    <vehicle id="left_8" type="car" route="left" depart="68" />
    <vehicle id="right_9" type="car" route="right" depart="85" />
    <vehicle id="left_10" type="car" route="left" depart="101" />
    <vehicle id="UP_11" type="car" route="down" depart="102" color="1,0,0"/>
    <vehicle id="down_12" type="car" route="up" depart="103" color="1,0,0"/>
    <vehicle id="down_13" type="car" route="up" depart="127" color="1,0,0"/>
    <vehicle id="right_14" type="car" route="right" depart="130" />
    <vehicle id="right_15" type="car" route="right" depart="135" />
    <vehicle id="left_16" type="car" route="left" depart="137" />
    <vehicle id="down_17" type="car" route="up" depart="141" color="1,0,0"/>
    <vehicle id="left_18" type="car" route="left" depart="160" />
    <vehicle id="right_19" type="car" route="right" depart="173" />
    <vehicle id="left_20" type="car" route="left" depart="177" />
    <vehicle id="down_21" type="car" route="up" depart="179" color="1,0,0"/>
    <vehicle id="down_22" type="car" route="up" depart="182" color="1,0,0"/>
    <vehicle id="left_23" type="car" route="left" depart="185" />
    <vehicle id="right_24" type="car" route="right" depart="189" />
    <vehicle id="left_25" type="car" route="left" depart="190" />
    <vehicle id="right_26" type="car" route="right" depart="198" />
    <vehicle id="UP_27" type="car" route="down" depart="206" color="1,0,0"/>
    <vehicle id="right_28" type="car" route="right" depart="220" />
    <vehicle id="right_29" type="car" route="right" depart="233" />
    <vehicle id="right_30" type="car" route="right" depart="237" />
    <vehicle id="left_31" type="car" route="left" depart="244" />
    <vehicle id="left_32" type="car" route="left" depart="246" />
    <vehicle id="down_33" type="car" route="up" depart="248" color="1,0,0"/>
    <vehicle id="right_34" type="car" route="right" depart="253" />
    <vehicle id="right_35" type="car" route="right" depart="258" />
    <vehicle id="left_36" type="car" route="left" depart="258" />
    <vehicle id="down_37" type="car" route="up" depart="272" color="1,0,0"/>
    <vehicle id="right_38" type="car" route="right" depart="281" />
    <vehicle id="UP_39" type="car" route="down" depart="297" color="1,0,0"/>
    <vehicle id="right_40" type="car" route="right" depart="299" />
    <vehicle id="right_41" type="car" route="right" depart="304" />
    <vehicle id="UP_42" type="car" route="down" depart="309" color="1,0,0"/>
    <vehicle id="left_43" type="car" route="left" depart="319" />
    <vehicle id="right_44" type="car" route="right" depart="329" />
    <vehicle id="down_45" type="car" route="up" depart="329" color="1,0,0"/>
    <vehicle id="UP_46" type="car" route="down" depart="349" color="1,0,0"/>
    <vehicle id="right_47" type="car" route="right" depart="353" />
    <vehicle id="right_48" type="car" route="right" depart="358" />
    <vehicle id="down_49" type="car" route="up" depart="370" color="1,0,0"/>
    <vehicle id="right_50" type="car" route="right" depart="377" />
    <vehicle id="right_51" type="car" route="right" depart="387" />
    <vehicle id="left_52" type="car" route="left" depart="395" />
    <vehicle id="right_53" type="car" route="right" depart="405" />
    <vehicle id="UP_54" type="car" route="down" depart="408" color="1,0,0"/>
    <vehicle id="down_55" type="car" route="up" depart="428" color="1,0,0"/>
    <vehicle id="left_56" type="car" route="left" depart="437" />
    <vehicle id="UP_57" type="car" route="down" depart="475" color="1,0,0"/>
    <vehicle id="right_58" type="car" route="right" depart="479" />
    <vehicle id="left_59" type="car" route="left" depart="486" />
    <vehicle id="left_60" type="car" route="left" depart="490" />
    <vehicle id="down_61" type="car" route="up" depart="504" color="1,0,0"/>
    <vehicle id="left_62" type="car" route="left" depart="516" />
    <vehicle id="right_63" type="car" route="right" depart="549" />
    <vehicle id="down_64" type="car" route="up" depart="584" color="1,0,0"/>
    <vehicle id="right_65" type="car" route="right" depart="591" />
    <vehicle id="right_66" type="car" route="right" depart="601" />
    <vehicle id="left_67" type="car" route="left" depart="601" />
    <vehicle id="left_68" type="car" route="left" depart="612" />
    <vehicle id="UP_69" type="car" route="down" depart="613" color="1,0,0"/>
    <vehicle id="left_70" type="car" route="left" depart="614" />
    <vehicle id="left_71" type="car" route="left" depart="633" />
    <vehicle id="right_72" type="car" route="right" depart="635" />
    <vehicle id="right_73" type="car" route="right" depart="638" />
    <vehicle id="left_74" type="car" route="left" depart="646" />
    <vehicle id="right_75" type="car" route="right" depart="654" />
    <vehicle id="right_76" type="car" route="right" depart="657" />
    <vehicle id="right_77" type="car" route="right" depart="660" />
    <vehicle id="down_78" type="car" route="up" depart="663" color="1,0,0"/>
    <vehicle id="left_79" type="car" route="left" depart="679" />
    <vehicle id="left_80" type="car" route="left" depart="685" />
    <vehicle id="right_81" type="car" route="right" depart="694" />
    <vehicle id="left_82" type="car" route="left" depart="718" />
    <vehicle id="left_83" type="car" route="left" depart="727" />
    <vehicle id="down_84" type="car" route="up" depart="737" color="1,0,0"/>
    <vehicle id="left_85" type="car" route="left" depart="746" />
    <vehicle id="right_86" type="car" route="right" depart="753" />
    <vehicle id="left_87" type="car" route="left" depart="772" />
    <vehicle id="down_88" type="car" route="up" depart="772" color="1,0,0"/>
    <vehicle id="right_89" type="car" route="right" depart="784" />
    <vehicle id="right_90" type="car" route="right" depart="801" />
    <vehicle id="right_91" type="car" route="right" depart="803" />
    <vehicle id="left_92" type="car" route="left" depart="806" />
    <vehicle id="right_93" type="car" route="right" depart="807" />
    <vehicle id="right_94" type="car" route="right" depart="808" />
    <vehicle id="UP_95" type="car" route="down" depart="815" color="1,0,0"/>
    <vehicle id="right_96" type="car" route="right" depart="819" />
    <vehicle id="right_97" type="car" route="right" depart="821" />
    <vehicle id="left_98" type="car" route="left" depart="823" />
    <vehicle id="UP_99" type="car" route="down" depart="824" color="1,0,0"/>
    <vehicle id="left_100" type="car" route="left" depart="834" />
    <vehicle id="right_101" type="car" route="right" depart="847" />
    <vehicle id="left_102" type="car" route="left" depart="847" />
    <vehicle id="left_103" type="car" route="left" depart="851" />
    <vehicle id="left_104" type="car" route="left" depart="861" />
    <vehicle id="UP_105" type="car" route="down" depart="869" color="1,0,0"/>
    <vehicle id="right_106" type="car" route="right" depart="876" />
    <vehicle id="left_107" type="car" route="left" depart="907" />
    <vehicle id="right_108" type="car" route="right" depart="909" />
    <vehicle id="right_109" type="car" route="right" depart="915" />
    <vehicle id="left_110" type="car" route="left" depart="919" />
    <vehicle id="left_111" type="car" route="left" depart="927" />
    <vehicle id="left_112" type="car" route="left" depart="955" />
    <vehicle id="UP_113" type="car" route="down" depart="956" color="1,0,0"/>
    <vehicle id="right_114" type="car" route="right" depart="970" />
    <vehicle id="left_115" type="car" route="left" depart="987" />
    <vehicle id="left_116" type="car" route="left" depart="994" />
    <vehicle id="right_117" type="car" route="right" depart="998" />
    <vehicle id="right_118" type="car" route="right" depart="1023" />
    <vehicle id="left_119" type="car" route="left" depart="1026" />
    <vehicle id="down_120" type="car" route="up" depart="1035" color="1,0,0"/>
    <vehicle id="left_121" type="car" route="left" depart="1044" />
    <vehicle id="left_122" type="car" route="left" depart="1051" />
    <vehicle id="left_123" type="car" route="left" depart="1052" />
    <vehicle id="right_124" type="car" route="right" depart="1054" />
    <vehicle id="right_125" type="car" route="right" depart="1068" />
    <vehicle id="right_126" type="car" route="right" depart="1075" />
    <vehicle id="right_127" type="car" route="right" depart="1081" />
    <vehicle id="right_128" type="car" route="right" depart="1087" />
    <vehicle id="right_129" type="car" route="right" depart="1119" />
    <vehicle id="right_130" type="car" route="right" depart="1122" />
    <vehicle id="left_131" type="car" route="left" depart="1134" />
    <vehicle id="UP_132" type="car" route="down" depart="1139" color="1,0,0"/>
    <vehicle id="right_133" type="car" route="right" depart="1142" />
    <vehicle id="left_134" type="car" route="left" depart="1147" />
    <vehicle id="right_135" type="car" route="right" depart="1163" />
    <vehicle id="right_136" type="car" route="right" depart="1178" />
    <vehicle id="right_137" type="car" route="right" depart="1179" />
    <vehicle id="right_138" type="car" route="right" depart="1183" />
    <vehicle id="down_139" type="car" route="up" depart="1186" color="1,0,0"/>
    <vehicle id="left_140" type="car" route="left" depart="1190" />
    <vehicle id="left_141" type="car" route="left" depart="1200" />
    <vehicle id="left_142" type="car" route="left" depart="1206" />
    <vehicle id="down_143" type="car" route="up" depart="1209" color="1,0,0"/>
    <vehicle id="right_144" type="car" route="right" depart="1218" />
    <vehicle id="right_145" type="car" route="right" depart="1244" />
    <vehicle id="left_146" type="car" route="left" depart="1248" />
    <vehicle id="left_147" type="car" route="left" depart="1256" />
    <vehicle id="left_148" type="car" route="left" depart="1257" />
    <vehicle id="right_149" type="car" route="right" depart="1279" />
    <vehicle id="UP_150" type="car" route="down" depart="1286" color="1,0,0"/>
    <vehicle id="left_151" type="car" route="left" depart="1296" />
    <vehicle id="left_152" type="car" route="left" depart="1309" />
    <vehicle id="left_153" type="car" route="left" depart="1312" />
    <vehicle id="right_154" type="car" route="right" depart="1314" />
    <vehicle id="right_155" type="car" route="right" depart="1316" />
    <vehicle id="down_156" type="car" route="up" depart="1324" color="1,0,0"/>
    <vehicle id="down_157" type="car" route="up" depart="1331" color="1,0,0"/>
    <vehicle id="right_158" type="car" route="right" depart="1345" />
    <vehicle id="left_159" type="car" route="left" depart="1347" />
    <vehicle id="left_160" type="car" route="left" depart="1355" />
    <vehicle id="left_161" type="car" route="left" depart="1367" />
    <vehicle id="right_162" type="car" route="right" depart="1381" />
    <vehicle id="left_163" type="car" route="left" depart="1390" />
    <vehicle id="left_164" type="car" route="left" depart="1400" />
    <vehicle id="UP_165" type="car" route="down" depart="1403" color="1,0,0"/>
    <vehicle id="right_166" type="car" route="right" depart="1405" />
    <vehicle id="right_167" type="car" route="right" depart="1406" />
    <vehicle id="left_168" type="car" route="left" depart="1409" />
    <vehicle id="left_169" type="car" route="left" depart="1410" />
    <vehicle id="right_170" type="car" route="right" depart="1427" />
    <vehicle id="right_171" type="car" route="right" depart="1430" />
    <vehicle id="left_172" type="car" route="left" depart="1437" />
    <vehicle id="right_173" type="car" route="right" depart="1448" />
    <vehicle id="left_174" type="car" route="left" depart="1449" />
    <vehicle id="UP_175" type="car" route="down" depart="1459" color="1,0,0"/>
    <vehicle id="left_176" type="car" route="left" depart="1467" />
    <vehicle id="left_177" type="car" route="left" depart="1474" />
    <vehicle id="right_178" type="car" route="right" depart="1477" />
    <vehicle id="down_179" type="car" route="up" depart="1481" color="1,0,0"/>
    <vehicle id="left_180" type="car" route="left" depart="1494" />
    <vehicle id="right_181" type="car" route="right" depart="1524" />
    <vehicle id="left_182" type="car" route="left" depart="1525" />
    <vehicle id="right_183" type="car" route="right" depart="1542" />
    <vehicle id="down_184" type="car" route="up" depart="1542" color="1,0,0"/>
    <vehicle id="UP_185" type="car" route="down" depart="1550" color="1,0,0"/>
    <vehicle id="UP_186" type="car" route="down" depart="1577" color="1,0,0"/>
    <vehicle id="right_187" type="car" route="right" depart="1591" />
    <vehicle id="down_188" type="car" route="up" depart="1612" color="1,0,0"/>
    <vehicle id="right_189" type="car" route="right" depart="1622" />
    <vehicle id="UP_190" type="car" route="down" depart="1623" color="1,0,0"/>
    <vehicle id="UP_191" type="car" route="down" depart="1644" color="1,0,0"/>
    <vehicle id="right_192" type="car" route="right" depart="1651" />
    <vehicle id="right_193" type="car" route="right" depart="1685" />
    <vehicle id="left_194" type="car" route="left" depart="1687" />
    <vehicle id="left_195" type="car" route="left" depart="1714" />
    <vehicle id="right_196" type="car" route="right" depart="1719" />
    <vehicle id="right_197" type="car" route="right" depart="1722" />
    <vehicle id="left_198" type="car" route="left" depart="1725" />
    <vehicle id="UP_199" type="car" route="down" depart="1739" color="1,0,0"/>
    <vehicle id="right_200" type="car" route="right" depart="1745" />
    <vehicle id="right_201" type="car" route="right" depart="1746" />
    <vehicle id="right_202" type="car" route="right" depart="1747" />
    <vehicle id="left_203" type="car" route="left" depart="1773" />
    <vehicle id="right_204" type="car" route="right" depart="1780" />
    <vehicle id="left_205" type="car" route="left" depart="1784" />
    <vehicle id="right_206" type="car" route="right" depart="1793" />
    <vehicle id="left_207" type="car" route="left" depart="1803" />
    <vehicle id="UP_208" type="car" route="down" depart="1816" color="1,0,0"/>
    <vehicle id="right_209" type="car" route="right" depart="1820" />
    <vehicle id="right_210" type="car" route="right" depart="1822" />
    <vehicle id="UP_211" type="car" route="down" depart="1824" color="1,0,0"/>
    <vehicle id="left_212" type="car" route="left" depart="1829" />
    <vehicle id="left_213" type="car" route="left" depart="1839" />
    <vehicle id="left_214" type="car" route="left" depart="1841" />
    <vehicle id="UP_215" type="car" route="down" depart="1842" color="1,0,0"/>
    <vehicle id="left_216" type="car" route="left" depart="1863" />
    <vehicle id="right_217" type="car" route="right" depart="1869" />
    <vehicle id="down_218" type="car" route="up" depart="1873" color="1,0,0"/>
    <vehicle id="left_219" type="car" route="left" depart="1877" />
    <vehicle id="down_220" type="car" route="up" depart="1896" color="1,0,0"/>
    <vehicle id="right_221" type="car" route="right" depart="1902" />
    <vehicle id="left_222" type="car" route="left" depart="1907" />
    <vehicle id="UP_223" type="car" route="down" depart="1908" color="1,0,0"/>
    <vehicle id="right_224" type="car" route="right" depart="1910" />
    <vehicle id="left_225" type="car" route="left" depart="1910" />
    <vehicle id="left_226" type="car" route="left" depart="1919" />
    <vehicle id="right_227" type="car" route="right" depart="1926" />
    <vehicle id="left_228" type="car" route="left" depart="1944" />
    <vehicle id="left_229" type="car" route="left" depart="1971" />
    <vehicle id="left_230" type="car" route="left" depart="1984" />
    <vehicle id="down_231" type="car" route="up" depart="1988" color="1,0,0"/>
    <vehicle id="down_232" type="car" route="up" depart="1994" color="1,0,0"/>
    <vehicle id="left_233" type="car" route="left" depart="1997" />
    <vehicle id="left_234" type="car" route="left" depart="2006" />
    <vehicle id="left_235" type="car" route="left" depart="2027" />
    <vehicle id="left_236" type="car" route="left" depart="2033" />
    <vehicle id="right_237" type="car" route="right" depart="2034" />
    <vehicle id="UP_238" type="car" route="down" depart="2038" color="1,0,0"/>
    <vehicle id="left_239" type="car" route="left" depart="2042" />
    <vehicle id="right_240" type="car" route="right" depart="2044" />
    <vehicle id="left_241" type="car" route="left" depart="2046" />
    <vehicle id="left_242" type="car" route="left" depart="2051" />
    <vehicle id="right_243" type="car" route="right" depart="2056" />
    <vehicle id="down_244" type="car" route="up" depart="2058" color="1,0,0"/>
    <vehicle id="right_245" type="car" route="right" depart="2061" />
    <vehicle id="right_246" type="car" route="right" depart="2078" />
    <vehicle id="right_247" type="car" route="right" depart="2083" />
    <vehicle id="UP_248" type="car" route="down" depart="2093" color="1,0,0"/>
    <vehicle id="right_249" type="car" route="right" depart="2096" />
    <vehicle id="down_250" type="car" route="up" depart="2114" color="1,0,0"/>
    <vehicle id="right_251" type="car" route="right" depart="2129" />
    <vehicle id="UP_252" type="car" route="down" depart="2133" color="1,0,0"/>
    <vehicle id="down_253" type="car" route="up" depart="2144" color="1,0,0"/>
    <vehicle id="UP_254" type="car" route="down" depart="2146" color="1,0,0"/>
    <vehicle id="UP_255" type="car" route="down" depart="2156" color="1,0,0"/>
    <vehicle id="left_256" type="car" route="left" depart="2164" />
    <vehicle id="right_257" type="car" route="right" depart="2184" />
    <vehicle id="down_258" type="car" route="up" depart="2188" color="1,0,0"/>
    <vehicle id="right_259" type="car" route="right" depart="2198" />
    <vehicle id="UP_260" type="car" route="down" depart="2203" color="1,0,0"/>
    <vehicle id="left_261" type="car" route="left" depart="2206" />
    <vehicle id="left_262" type="car" route="left" depart="2210" />
    <vehicle id="right_263" type="car" route="right" depart="2222" />
    <vehicle id="left_264" type="car" route="left" depart="2225" />
    <vehicle id="right_265" type="car" route="right" depart="2226" />
    <vehicle id="left_266" type="car" route="left" depart="2232" />
    <vehicle id="left_267" type="car" route="left" depart="2238" />
    <vehicle id="right_268" type="car" route="right" depart="2242" />
    <vehicle id="left_269" type="car" route="left" depart="2282" />
    <vehicle id="left_270" type="car" route="left" depart="2289" />
    <vehicle id="right_271" type="car" route="right" depart="2310" />
    <vehicle id="down_272" type="car" route="up" depart="2350" color="1,0,0"/>
    <vehicle id="left_273" type="car" route="left" depart="2362" />
    <vehicle id="right_274" type="car" route="right" depart="2369" />
    <vehicle id="left_275" type="car" route="left" depart="2371" />
    <vehicle id="right_276" type="car" route="right" depart="2387" />
    <vehicle id="right_277" type="car" route="right" depart="2394" />
    <vehicle id="left_278" type="car" route="left" depart="2399" />
    <vehicle id="down_279" type="car" route="up" depart="2420" color="1,0,0"/>
    <vehicle id="left_280" type="car" route="left" depart="2438" />
    <vehicle id="UP_281" type="car" route="down" depart="2441" color="1,0,0"/>
    <vehicle id="right_282" type="car" route="right" depart="2447" />
    <vehicle id="right_283" type="car" route="right" depart="2450" />
    <vehicle id="right_284" type="car" route="right" depart="2460" />
    <vehicle id="left_285" type="car" route="left" depart="2461" />
    <vehicle id="UP_286" type="car" route="down" depart="2461" color="1,0,0"/>
    <vehicle id="down_287" type="car" route="up" depart="2475" color="1,0,0"/>
    <vehicle id="left_288" type="car" route="left" depart="2485" />
    <vehicle id="right_289" type="car" route="right" depart="2506" />
    <vehicle id="left_290" type="car" route="left" depart="2507" />
    <vehicle id="right_291" type="car" route="right" depart="2521" />
    <vehicle id="right_292" type="car" route="right" depart="2530" />
    <vehicle id="left_293" type="car" route="left" depart="2532" />
    <vehicle id="left_294" type="car" route="left" depart="2545" />
    <vehicle id="left_295" type="car" route="left" depart="2554" />
    <vehicle id="left_296" type="car" route="left" depart="2559" />
    <vehicle id="left_297" type="car" route="left" depart="2564" />
    <vehicle id="UP_298" type="car" route="down" depart="2567" color="1,0,0"/>
    <vehicle id="right_299" type="car" route="right" depart="2568" />
    <vehicle id="left_300" type="car" route="left" depart="2569" />
    <vehicle id="right_301" type="car" route="right" depart="2578" />
    <vehicle id="right_302" type="car" route="right" depart="2581" />
    <vehicle id="down_303" type="car" route="up" depart="2597" color="1,0,0"/>
    <vehicle id="left_304" type="car" route="left" depart="2599" />
    <vehicle id="UP_305" type="car" route="down" depart="2599" color="1,0,0"/>
    <vehicle id="right_306" type="car" route="right" depart="2600" />
    <vehicle id="left_307" type="car" route="left" depart="2605" />
    <vehicle id="down_308" type="car" route="up" depart="2608" color="1,0,0"/>
    <vehicle id="left_309" type="car" route="left" depart="2610" />
    <vehicle id="down_310" type="car" route="up" depart="2616" color="1,0,0"/>
    <vehicle id="right_311" type="car" route="right" depart="2629" />
    <vehicle id="right_312" type="car" route="right" depart="2643" />
    <vehicle id="down_313" type="car" route="up" depart="2643" color="1,0,0"/>
    <vehicle id="left_314" type="car" route="left" depart="2653" />
    <vehicle id="UP_315" type="car" route="down" depart="2667" color="1,0,0"/>
    <vehicle id="down_316" type="car" route="up" depart="2674" color="1,0,0"/>
    <vehicle id="left_317" type="car" route="left" depart="2681" />
    <vehicle id="UP_318" type="car" route="down" depart="2688" color="1,0,0"/>
    <vehicle id="left_319" type="car" route="left" depart="2689" />
    <vehicle id="right_320" type="car" route="right" depart="2712" />
    <vehicle id="left_321" type="car" route="left" depart="2714" />
    <vehicle id="right_322" type="car" route="right" depart="2733" />
    <vehicle id="left_323" type="car" route="left" depart="2733" />
    <vehicle id="left_324" type="car" route="left" depart="2745" />
    <vehicle id="left_325" type="car" route="left" depart="2762" />
    <vehicle id="left_326" type="car" route="left" depart="2769" />
    <vehicle id="right_327" type="car" route="right" depart="2772" />
    <vehicle id="right_328" type="car" route="right" depart="2773" />
    <vehicle id="right_329" type="car" route="right" depart="2779" />
    <vehicle id="left_330" type="car" route="left" depart="2780" />
    <vehicle id="right_331" type="car" route="right" depart="2781" />
    <vehicle id="left_332" type="car" route="left" depart="2793" />
    <vehicle id="right_333" type="car" route="right" depart="2806" />
    <vehicle id="right_334" type="car" route="right" depart="2808" />
    <vehicle id="UP_335" type="car" route="down" depart="2824" color="1,0,0"/>
    <vehicle id="left_336" type="car" route="left" depart="2853" />
    <vehicle id="right_337" type="car" route="right" depart="2856" />
    <vehicle id="down_338" type="car" route="up" depart="2863" color="1,0,0"/>
    <vehicle id="UP_339" type="car" route="down" depart="2871" color="1,0,0"/>
    <vehicle id="right_340" type="car" route="right" depart="2874" />
    <vehicle id="UP_341" type="car" route="down" depart="2875" color="1,0,0"/>
    <vehicle id="left_342" type="car" route="left" depart="2880" />
    <vehicle id="right_343" type="car" route="right" depart="2890" />
    <vehicle id="right_344" type="car" route="right" depart="2904" />
    <vehicle id="left_345" type="car" route="left" depart="2905" />
    <vehicle id="right_346" type="car" route="right" depart="2914" />
    <vehicle id="left_347" type="car" route="left" depart="2917" />
    <vehicle id="left_348" type="car" route="left" depart="2923" />
    <vehicle id="UP_349" type="car" route="down" depart="2923" color="1,0,0"/>
    <vehicle id="right_350" type="car" route="right" depart="2928" />
    <vehicle id="right_351" type="car" route="right" depart="2950" />
    <vehicle id="right_352" type="car" route="right" depart="2960" />
    <vehicle id="down_353" type="car" route="up" depart="2977" color="1,0,0"/>
    <vehicle id="right_354" type="car" route="right" depart="2981" />
    <vehicle id="right_355" type="car" route="right" depart="3009" />
    <vehicle id="down_356" type="car" route="up" depart="3016" color="1,0,0"/>
    <vehicle id="down_357" type="car" route="up" depart="3019" color="1,0,0"/>
    <vehicle id="right_358" type="car" route="right" depart="3039" />
    <vehicle id="down_359" type="car" route="up" depart="3061" color="1,0,0"/>
    <vehicle id="left_360" type="car" route="left" depart="3065" />
    <vehicle id="right_361" type="car" route="right" depart="3077" />
    <vehicle id="right_362" type="car" route="right" depart="3078" />
    <vehicle id="left_363" type="car" route="left" depart="3080" />
    <vehicle id="left_364" type="car" route="left" depart="3103" />
    <vehicle id="down_365" type="car" route="up" depart="3109" color="1,0,0"/>
    <vehicle id="left_366" type="car" route="left" depart="3110" />
    <vehicle id="left_367" type="car" route="left" depart="3117" />
    <vehicle id="right_368" type="car" route="right" depart="3131" />
    <vehicle id="left_369" type="car" route="left" depart="3144" />
    <vehicle id="down_370" type="car" route="up" depart="3144" color="1,0,0"/>
    <vehicle id="right_371" type="car" route="right" depart="3147" />
    <vehicle id="down_372" type="car" route="up" depart="3156" color="1,0,0"/>
    <vehicle id="right_373" type="car" route="right" depart="3168" />
    <vehicle id="right_374" type="car" route="right" depart="3174" />
    <vehicle id="right_375" type="car" route="right" depart="3203" />
    <vehicle id="left_376" type="car" route="left" depart="3210" />
    <vehicle id="right_377" type="car" route="right" depart="3215" />
    <vehicle id="down_378" type="car" route="up" depart="3223" color="1,0,0"/>
    <vehicle id="left_379" type="car" route="left" depart="3231" />
    <vehicle id="right_380" type="car" route="right" depart="3246" />
    <vehicle id="left_381" type="car" route="left" depart="3252" />
    <vehicle id="right_382" type="car" route="right" depart="3253" />
    <vehicle id="left_383" type="car" route="left" depart="3263" />
    <vehicle id="right_384" type="car" route="right" depart="3271" />
    <vehicle id="right_385" type="car" route="right" depart="3273" />
    <vehicle id="left_386" type="car" route="left" depart="3287" />
    <vehicle id="UP_387" type="car" route="down" depart="3323" color="1,0,0"/>
    <vehicle id="right_388" type="car" route="right" depart="3352" />
    <vehicle id="right_389" type="car" route="right" depart="3353" />
    <vehicle id="left_390" type="car" route="left" depart="3364" />
    <vehicle id="right_391" type="car" route="right" depart="3367" />
    <vehicle id="left_392" type="car" route="left" depart="3377" />
    <vehicle id="left_393" type="car" route="left" depart="3381" />
    <vehicle id="left_394" type="car" route="left" depart="3383" />
    <vehicle id="left_395" type="car" route="left" depart="3384" />
    <vehicle id="right_396" type="car" route="right" depart="3386" />
    <vehicle id="left_397" type="car" route="left" depart="3398" />
    <vehicle id="UP_398" type="car" route="down" depart="3410" color="1,0,0"/>
    <vehicle id="right_399" type="car" route="right" depart="3413" />
    <vehicle id="right_400" type="car" route="right" depart="3415" />
    <vehicle id="left_401" type="car" route="left" depart="3423" />
    <vehicle id="right_402" type="car" route="right" depart="3434" />
    <vehicle id="left_403" type="car" route="left" depart="3437" />
    <vehicle id="left_404" type="car" route="left" depart="3440" />
    <vehicle id="UP_405" type="car" route="down" depart="3449" color="1,0,0"/>
    <vehicle id="right_406" type="car" route="right" depart="3467" />
    <vehicle id="left_407" type="car" route="left" depart="3479" />
    <vehicle id="left_408" type="car" route="left" depart="3485" />
    <vehicle id="left_409" type="car" route="left" depart="3488" />
    <vehicle id="left_410" type="car" route="left" depart="3507" />
    <vehicle id="right_411" type="car" route="right" depart="3520" />
    <vehicle id="left_412" type="car" route="left" depart="3528" />
    <vehicle id="down_413" type="car" route="up" depart="3530" color="1,0,0"/>
    <vehicle id="right_414" type="car" route="right" depart="3546" />
    <vehicle id="right_415" type="car" route="right" depart="3551" />
    <vehicle id="left_416" type="car" route="left" depart="3569" />
    <vehicle id="down_417" type="car" route="up" depart="3574" color="1,0,0"/>
    <vehicle id="UP_418" type="car" route="down" depart="3574" color="1,0,0"/>