<routes>
        <vType id="car" accel="0.8" decel="4.5" sigma="0.5" length="5" minGap="2.5" maxSpeed="16.67" guiShape="passenger"/>
        <route id="right" edges="51o 1i 2o 52i" />
        <route id="left" edges="52o 2i 1o 51i" />
        <route id="down" edges="54o 4i 3o 53i" />
        <route id="up" edges="53o 3i 4o 54i" />
    <vehicle id="left_0" type="car" route="left" depart="2" />
    <vehicle id="left_1" type="car" route="left" depart="10" />
    <vehicle id="right_2" type="car" route="right" depart="14" />
    <vehicle id="right_3" type="car" route="right" depart="23" />
    <vehicle id="left_4" type="car" route="left" depart="29" />
    <vehicle id="right_5" type="car" route="right" depart="30" />
    <vehicle id="down_6" type="car" route="up" depart="35" color="1,0,0"/>
    <vehicle id="UP_7" type="car" route="down" depart="35" color="1,0,0"/>
    <vehicle id="right_8" type="car" route="right" depart="38" />
    <vehicle id="right_9" type="car" route="right" depart="39" />
    <vehicle id="right_10" type="car" route="right" depart="40" />
    <vehicle id="right_11" type="car" route="right" depart="59" />
    <vehicle id="right_12" type="car" route="right" depart="60" />
    <vehicle id="down_13" type="car" route="up" depart="68" color="1,0,0"/>
    <vehicle id="left_14" type="car" route="left" depart="78" />
    <vehicle id="left_15" type="car" route="left" depart="81" />
    <vehicle id="UP_16" type="car" route="down" depart="84" color="1,0,0"/>
    <vehicle id="left_17" type="car" route="left" depart="98" />
    <vehicle id="left_18" type="car" route="left" depart="104" />
    <vehicle id="down_19" type="car" route="up" depart="105" color="1,0,0"/>
    <vehicle id="UP_20" type="car" route="down" depart="116" color="1,0,0"/>
    <vehicle id="down_21" type="car" route="up" depart="134" color="1,0,0"/>
    <vehicle id="right_22" type="car" route="right" depart="138" />
    <vehicle id="right_23" type="car" route="right" depart="139" />
    <vehicle id="left_24" type="car" route="left" depart="141" />
    <vehicle id="UP_25" type="car" route="down" depart="160" color="1,0,0"/>
    <vehicle id="left_26" type="car" route="left" depart="164" />
    <vehicle id="down_27" type="car" route="up" depart="180" color="1,0,0"/>
    <vehicle id="left_28" type="car" route="left" depart="188" />
    <vehicle id="left_29" type="car" route="left" depart="193" />
    <vehicle id="right_30" type="car" route="right" depart="198" />
    <vehicle id="down_31" type="car" route="up" depart="198" color="1,0,0"/>
    <vehicle id="right_32" type="car" route="right" depart="207" />
    <vehicle id="right_33" type="car" route="right" depart="215" />
    <vehicle id="right_34" type="car" route="right" depart="216" />
    <vehicle id="right_35" type="car" route="right" depart="221" />
    <vehicle id="right_36" type="car" route="right" depart="223" />
    <vehicle id="left_37" type="car" route="left" depart="229" />
    <vehicle id="left_38" type="car" route="left" depart="240" />
    <vehicle id="left_39" type="car" route="left" depart="243" />
    <vehicle id="left_40" type="car" route="left" depart="247" />
    <vehicle id="UP_41" type="car" route="down" depart="255" color="1,0,0"/>
    <vehicle id="right_42" type="car" route="right" depart="268" />
    <vehicle id="left_43" type="car" route="left" depart="273" />
    <vehicle id="right_44" type="car" route="right" depart="284" />
    <vehicle id="left_45" type="car" route="left" depart="291" />
    <vehicle id="left_46" type="car" route="left" depart="300" />
    <vehicle id="down_47" type="car" route="up" depart="302" color="1,0,0"/>
    <vehicle id="left_48" type="car" route="left" depart="305" />
    <vehicle id="right_49" type="car" route="right" depart="315" />
    <vehicle id="UP_50" type="car" route="down" depart="315" color="1,0,0"/>
    <vehicle id="left_51" type="car" route="left" depart="321" />
    <vehicle id="right_52" type="car" route="right" depart="322" />
    <vehicle id="UP_53" type="car" route="down" depart="322" color="1,0,0"/>
    <vehicle id="right_54" type="car" route="right" depart="327" />
    <vehicle id="UP_55" type="car" route="down" depart="341" color="1,0,0"/>
    <vehicle id="UP_56" type="car" route="down" depart="343" color="1,0,0"/>
    <vehicle id="left_57" type="car" route="left" depart="368" />
    <vehicle id="left_58" type="car" route="left" depart="379" />
    <vehicle id="left_59" type="car" route="left" depart="385" />
    <vehicle id="right_60" type="car" route="right" depart="390" />
    <vehicle id="left_61" type="car" route="left" depart="408" />
    <vehicle id="left_62" type="car" route="left" depart="419" />
    <vehicle id="right_63" type="car" route="right" depart="420" />
    <vehicle id="UP_64" type="car" route="down" depart="421" color="1,0,0"/>
    <vehicle id="right_65" type="car" route="right" depart="432" />
    <vehicle id="right_66" type="car" route="right" depart="440" />
    <vehicle id="left_67" type="car" route="left" depart="443" />
    <vehicle id="right_68" type="car" route="right" depart="453" />
    <vehicle id="right_69" type="car" route="right" depart="466" />
    <vehicle id="right_70" type="car" route="right" depart="475" />
    <vehicle id="right_71" type="car" route="right" depart="500" />
    <vehicle id="right_72" type="car" route="right" depart="510" />
    <vehicle id="left_73" type="car" route="left" depart="511" />
    <vehicle id="right_74" type="car" route="right" depart="513" />
    <vehicle id="left_75" type="car" route="left" depart="520" />
    <vehicle id="right_76" type="car" route="right" depart="526" />
    <vehicle id="right_77" type="car" route="right" depart="527" />
    <vehicle id="left_78" type="car" route="left" depart="534" />
    <vehicle id="right_79" type="car" route="right" depart="541" />
    <vehicle id="left_80" type="car" route="left" depart="543" />
    <vehicle id="left_81" type="car" route="left" depart="545" />
    <vehicle id="UP_82" type="car" route="down" depart="545" color="1,0,0"/>
    <vehicle id="right_83" type="car" route="right" depart="552" />
    <vehicle id="right_84" type="car" route="right" depart="558" />
    <vehicle id="left_85" type="car" route="left" depart="566" />
    <vehicle id="down_86" type="car" route="up" depart="569" color="1,0,0"/>
    <vehicle id="left_87" type="car" route="left" depart="579" />
    <vehicle id="left_88" type="car" route="left" depart="581" />
    <vehicle id="right_89" type="car" route="right" depart="593" />
    <vehicle id="left_90" type="car" route="left" depart="601" />
    <vehicle id="left_91" type="car" route="left" depart="609" />
    <vehicle id="UP_92" type="car" route="down" depart="612" color="1,0,0"/>
    <vehicle id="right_93" type="car" route="right" depart="614" />
    <vehicle id="right_94" type="car" route="right" depart="624" />
    <vehicle id="left_95" type="car" route="left" depart="633" />
    <vehicle id="right_96" type="car" route="right" depart="635" />
    <vehicle id="right_97" type="car" route="right" depart="638" />
    <vehicle id="right_98" type="car" route="right" depart="639" />
    <vehicle id="left_99" type="car" route="left" depart="640" />
    <vehicle id="right_100" type="car" route="right" depart="643" />
    <vehicle id="right_101" type="car" route="right" depart="651" />
    <vehicle id="right_102" type="car" route="right" depart="652" />
    <vehicle id="right_103" type="car" route="right" depart="659" />
    <vehicle id="left_104" type="car" route="left" depart="664" />
    <vehicle id="right_105" type="car" route="right" depart="671" />
    <vehicle id="right_106" type="car" route="right" depart="682" />
    <vehicle id="UP_107" type="car" route="down" depart="683" color="1,0,0"/>
    <vehicle id="left_108" type="car" route="left" depart="684" />
    <vehicle id="down_109" type="car" route="up" depart="686" color="1,0,0"/>
    <vehicle id="down_110" type="car" route="up" depart="694" color="1,0,0"/>
    <vehicle id="right_111" type="car" route="right" depart="697" />
    <vehicle id="down_112" type="car" route="up" depart="699" color="1,0,0"/>
    <vehicle id="down_113" type="car" route="up" depart="701" color="1,0,0"/>
    <vehicle id="left_114" type="car" route="left" depart="712" />
    <vehicle id="right_115" type="car" route="right" depart="729" />
    <vehicle id="right_116" type="car" route="right" depart="735" />
    <vehicle id="right_117" type="car" route="right" depart="745" />
    <vehicle id="right_118" type="car" route="right" depart="756" />
    <vehicle id="left_119" type="car" route="left" depart="760" />
    <vehicle id="left_120" type="car" route="left" depart="783" />
    <vehicle id="right_121" type="car" route="right" depart="788" />
    <vehicle id="right_122" type="car" route="right" depart="789" />
    <vehicle id="left_123" type="car" route="left" depart="827" />
    <vehicle id="left_124" type="car" route="left" depart="830" />
    <vehicle id="down_125" type="car" route="up" depart="834" color="1,0,0"/>
    <vehicle id="right_126" type="car" route="right" depart="839" />
    <vehicle id="right_127" type="car" route="right" depart="853" />
    <vehicle id="left_128" type="car" route="left" depart="863" />
    <vehicle id="left_129" type="car" route="left" depart="867" />
    <vehicle id="right_130" type="car" route="right" depart="892" />
    <vehicle id="down_131" type="car" route="up" depart="903" color="1,0,0"/>
    <vehicle id="right_132" type="car" route="right" depart="916" />
    <vehicle id="left_133" type="car" route="left" depart="921" />
    <vehicle id="left_134" type="car" route="left" depart="947" />
    <vehicle id="left_135" type="car" route="left" depart="949" />
    <vehicle id="left_136" type="car" route="left" depart="957" />
    <vehicle id="right_137" type="car" route="right" depart="962" />
    <vehicle id="right_138" type="car" route="right" depart="972" />
    <vehicle id="right_139" type="car" route="right" depart="979" />
    <vehicle id="down_140" type="car" route="up" depart="987" color="1,0,0"/>
    <vehicle id="right_141" type="car" route="right" depart="992" />
    <vehicle id="left_142" type="car" route="left" depart="1000" />
    <vehicle id="left_143" type="car" route="left" depart="1011" />
    <vehicle id="left_144" type="car" route="left" depart="1019" />
    <vehicle id="right_145" type="car" route="right" depart="1023" />
    <vehicle id="right_146" type="car" route="right" depart="1024" />
    <vehicle id="right_147" type="car" route="right" depart="1027" />
    <vehicle id="right_148" type="car" route="right" depart="1040" />
    <vehicle id="left_149" type="car" route="left" depart="1055" />
    <vehicle id="right_150" type="car" route="right" depart="1057" />
    <vehicle id="left_151" type="car" route="left" depart="1069" />
    <vehicle id="right_152" type="car" route="right" depart="1071" />
    <vehicle id="left_153" type="car" route="left" depart="1077" />
    <vehicle id="left_154" type="car" route="left" depart="1085" />
    <vehicle id="right_155" type="car" route="right" depart="1092" />
    <vehicle id="down_156" type="car" route="up" depart="1121" color="1,0,0"/>
    <vehicle id="UP_157" type="car" route="down" depart="1125" color="1,0,0"/>
    <vehicle id="left_158" type="car" route="left" depart="1127" />
    <vehicle id="right_159" type="car" route="right" depart="1133" />
    <vehicle id="right_160" type="car" route="right" depart="1146" />
    <vehicle id="left_161" type="car" route="left" depart="1146" />
    <vehicle id="down_162" type="car" route="up" depart="1147" color="1,0,0"/>
    <vehicle id="left_163" type="car" route="left" depart="1148" />
    <vehicle id="right_164" type="car" route="right" depart="1167" />
    <vehicle id="right_165" type="car" route="right" depart="1176" />
    <vehicle id="right_166" type="car" route="right" depart="1186" />
    <vehicle id="right_167" type="car" route="right" depart="1190" />
    <vehicle id="left_168" type="car" route="left" depart="1191" />
    <vehicle id="right_169" type="car" route="right" depart="1194" />
    <vehicle id="left_170" type="car" route="left" depart="1198" />
    <vehicle id="right_171" type="car" route="right" depart="1203" />
    <vehicle id="right_172" type="car" route="right" depart="1215" />
    <vehicle id="left_173" type="car" route="left" depart="1216" />
    <vehicle id="right_174" type="car" route="right" depart="1222" />
    <vehicle id="left_175" type="car" route="left" depart="1234" />
    <vehicle id="down_176" type="car" route="up" depart="1234" color="1,0,0"/>
    <vehicle id="left_177" type="car" route="left" depart="1250" />
    <vehicle id="left_178" type="car" route="left" depart="1258" />
    <vehicle id="left_179" type="car" route="left" depart="1259" />
    <vehicle id="right_180" type="car" route="right" depart="1261" />
    <vehicle id="right_181" type="car" route="right" depart="1264" />
    <vehicle id="left_182" type="car" route="left" depart="1270" />
    <vehicle id="UP_183" type="car" route="down" depart="1277" color="1,0,0"/>
    <vehicle id="UP_184" type="car" route="down" depart="1280" color="1,0,0"/>
    <vehicle id="right_185" type="car" route="right" depart="1284" />
    <vehicle id="right_186" type="car" route="right" depart="1288" />
    <vehicle id="right_187" type="car" route="right" depart="1298" />
    <vehicle id="left_188" type="car" route="left" depart="1300" />
    <vehicle id="right_189" type="car" route="right" depart="1305" />
    <vehicle id="right_190" type="car" route="right" depart="1308" />
    <vehicle id="left_191" type="car" route="left" depart="1317" />
    <vehicle id="left_192" type="car" route="left" depart="1333" />
    <vehicle id="right_193" type="car" route="right" depart="1345" />
    <vehicle id="left_194" type="car" route="left" depart="1345" />
    <vehicle id="down_195" type="car" route="up" depart="1346" color="1,0,0"/>
    <vehicle id="UP_196" type="car" route="down" depart="1361" color="1,0,0"/>
    <vehicle id="right_197" type="car" route="right" depart="1365" />
    <vehicle id="right_198" type="car" route="right" depart="1367" />
    <vehicle id="UP_199" type="car" route="down" depart="1371" color="1,0,0"/>
    <vehicle id="right_200" type="car" route="right" depart="1381" />
    <vehicle id="down_201" type="car" route="up" depart="1381" color="1,0,0"/>
    <vehicle id="left_202" type="car" route="left" depart="1387" />
    <vehicle id="down_203" type="car" route="up" depart="1397" color="1,0,0"/>
    <vehicle id="UP_204" type="car" route="down" depart="1400" color="1,0,0"/>
    <vehicle id="down_205" type="car" route="up" depart="1408" color="1,0,0"/>
    <vehicle id="left_206" type="car" route="left" depart="1410" />
    <vehicle id="left_207" type="car" route="left" depart="1412" />
    <vehicle id="right_208" type="car" route="right" depart="1423" />
    <vehicle id="right_209" type="car" route="right" depart="1433" />
    <vehicle id="right_210" type="car" route="right" depart="1463" />
    <vehicle id="left_211" type="car" route="left" depart="1479" />
    <vehicle id="left_212" type="car" route="left" depart="1481" />
    <vehicle id="right_213" type="car" route="right" depart="1482" />
    <vehicle id="right_214" type="car" route="right" depart="1486" />
    <vehicle id="UP_215" type="car" route="down" depart="1487" color="1,0,0"/>
    <vehicle id="right_216" type="car" route="right" depart="1491" />
    <vehicle id="right_217" type="car" route="right" depart="1495" />
    <vehicle id="left_218" type="car" route="left" depart="1495" />
    <vehicle id="left_219" type="car" route="left" depart="1511" />
    <vehicle id="left_220" type="car" route="left" depart="1518" />
    <vehicle id="right_221" type="car" route="right" depart="1534" />
    <vehicle id="left_222" type="car" route="left" depart="1539" />
    <vehicle id="right_223" type="car" route="right" depart="1544" />
    <vehicle id="UP_224" type="car" route="down" depart="1545" color="1,0,0"/>
    <vehicle id="left_225" type="car" route="left" depart="1548" />
    <vehicle id="right_226" type="car" route="right" depart="1570" />
    <vehicle id="left_227" type="car" route="left" depart="1573" />
    <vehicle id="right_228" type="car" route="right" depart="1579" />
    <vehicle id="left_229" type="car" route="left" depart="1587" />
    <vehicle id="right_230" type="car" route="right" depart="1590" />
    <vehicle id="left_231" type="car" route="left" depart="1598" />
    <vehicle id="left_232" type="car" route="left" depart="1599" />
    <vehicle id="right_233" type="car" route="right" depart="1624" />
    <vehicle id="right_234" type="car" route="right" depart="1632" />
    <vehicle id="right_235" type="car" route="right" depart="1635" />
    <vehicle id="right_236" type="car" route="right" depart="1646" />
    <vehicle id="left_237" type="car" route="left" depart="1655" />
    <vehicle id="left_238" type="car" route="left" depart="1660" />
    <vehicle id="right_239" type="car" route="right" depart="1666" />
    <vehicle id="right_240" type="car" route="right" depart="1668" />
    <vehicle id="left_241" type="car" route="left" depart="1668" />
    <vehicle id="right_242" type="car" route="right" depart="1671" />
    <vehicle id="right_243" type="car" route="right" depart="1678" />
    <vehicle id="right_244" type="car" route="right" depart="1693" />
    <vehicle id="right_245" type="car" route="right" depart="1694" />
    <vehicle id="UP_246" type="car" route="down" depart="1704" color="1,0,0"/>
    <vehicle id="down_247" type="car" route="up" depart="1710" color="1,0,0"/>
    <vehicle id="right_248" type="car" route="right" depart="1714" />
    <vehicle id="left_249" type="car" route="left" depart="1719" />
    <vehicle id="right_250" type="car" route="right" depart="1725" />
    <vehicle id="left_251" type="car" route="left" depart="1745" />
    <vehicle id="right_252" type="car" route="right" depart="1750" />
    <vehicle id="left_253" type="car" route="left" depart="1752" />
    <vehicle id="down_254" type="car" route="up" depart="1753" color="1,0,0"/>
    <vehicle id="left_255" type="car" route="left" depart="1771" />
    <vehicle id="left_256" type="car" route="left" depart="1772" />
    <vehicle id="left_257" type="car" route="left" depart="1779" />
    <vehicle id="left_258" type="car" route="left" depart="1788" />
    <vehicle id="right_259" type="car" route="right" depart="1790" />
    <vehicle id="left_260" type="car" route="left" depart="1796" />
    <vehicle id="UP_261" type="car" route="down" depart="1821" color="1,0,0"/>
    <vehicle id="right_262" type="car" route="right" depart="1827" />
    <vehicle id="left_263" type="car" route="left" depart="1844" />
    <vehicle id="left_264" type="car" route="left" depart="1863" />
    <vehicle id="left_265" type="car" route="left" depart="1881" />
    <vehicle id="right_266" type="car" route="right" depart="1882" />
    <vehicle id="UP_267" type="car" route="down" depart="1883" color="1,0,0"/>
    <vehicle id="left_268" type="car" route="left" depart="1889" />
    <vehicle id="down_269" type="car" route="up" depart="1916" color="1,0,0"/>
    <vehicle id="right_270" type="car" route="right" depart="1932" />
    <vehicle id="right_271" type="car" route="right" depart="1944" />
    <vehicle id="left_272" type="car" route="left" depart="1944" />
    <vehicle id="down_273" type="car" route="up" depart="1967" color="1,0,0"/>
    <vehicle id="down_274" type="car" route="up" depart="1974" color="1,0,0"/>
    <vehicle id="left_275" type="car" route="left" depart="1982" />
    <vehicle id="right_276" type="car" route="right" depart="1988" />
    <vehicle id="right_277" type="car" route="right" depart="1992" />
    <vehicle id="left_278" type="car" route="left" depart="1992" />
    <vehicle id="left_279" type="car" route="left" depart="1993" />
    <vehicle id="right_280" type="car" route="right" depart="2000" />
    <vehicle id="left_281" type="car" route="left" depart="2008" />
    <vehicle id="left_282" type="car" route="left" depart="2012" />
    <vehicle id="UP_283" type="car" route="down" depart="2020" color="1,0,0"/>
    <vehicle id="down_284" type="car" route="up" depart="2027" color="1,0,0"/>
    <vehicle id="right_285" type="car" route="right" depart="2058" />
    <vehicle id="right_286" type="car" route="right" depart="2060" />
    <vehicle id="left_287" type="car" route="left" depart="2065" />
    <vehicle id="left_288" type="car" route="left" depart="2073" />
    <vehicle id="right_289" type="car" route="right" depart="2083" />
    <vehicle id="right_290" type="car" route="right" depart="2090" />
    <vehicle id="down_291" type="car" route="up" depart="2094" color="1,0,0"/>
    <vehicle id="right_292" type="car" route="right" depart="2095" />
    <vehicle id="UP_293" type="car" route="down" depart="2099" color="1,0,0"/>
    <vehicle id="right_294" type="car" route="right" depart="2130" />
    <vehicle id="down_295" type="car" route="up" depart="2146" color="1,0,0"/>
    <vehicle id="right_296" type="car" route="right" depart="2151" />
    <vehicle id="right_297" type="car" route="right" depart="2152" />
    <vehicle id="right_298" type="car" route="right" depart="2153" />
    <vehicle id="right_299" type="car" route="right" depart="2158" />
    <vehicle id="down_300" type="car" route="up" depart="2159" color="1,0,0"/>
    <vehicle id="right_301" type="car" route="right" depart="2171" />
    <vehicle id="left_302" type="car" route="left" depart="2182" />
    <vehicle id="right_303" type="car" route="right" depart="2186" />
    <vehicle id="left_304" type="car" route="left" depart="2187" />
    <vehicle id="left_305" type="car" route="left" depart="2210" />
    <vehicle id="right_306" type="car" route="right" depart="2220" />
    <vehicle id="down_307" type="car" route="up" depart="2228" color="1,0,0"/>
    <vehicle id="right_308" type="car" route="right" depart="2232" />
    <vehicle id="right_309" type="car" route="right" depart="2236" />
    <vehicle id="right_310" type="car" route="right" depart="2237" />
    <vehicle id="right_311" type="car" route="right" depart="2246" />
    <vehicle id="left_312" type="car" route="left" depart="2253" />
    <vehicle id="right_313" type="car" route="right" depart="2269" />
    <vehicle id="left_314" type="car" route="left" depart="2271" />
    <vehicle id="right_315" type="car" route="right" depart="2288" />
    <vehicle id="right_316" type="car" route="right" depart="2305" />
    <vehicle id="left_317" type="car" route="left" depart="2310" />
    <vehicle id="right_318" type="car" route="right" depart="2312" />
    <vehicle id="right_319" type="car" route="right" depart="2322" />
    <vehicle id="right_320" type="car" route="right" depart="2324" />
    <vehicle id="right_321" type="car" route="right" depart="2328" />
    <vehicle id="right_322" type="car" route="right" depart="2347" />
    <vehicle id="left_323" type="car" route="left" depart="2347" />
    <vehicle id="right_324" type="car" route="right" depart="2360" />
    <vehicle id="left_325" type="car" route="left" depart="2363" />
    <vehicle id="UP_326" type="car" route="down" depart="2363" color="1,0,0"/>
    <vehicle id="right_327" type="car" route="right" depart="2365" />
    <vehicle id="left_328" type="car" route="left" depart="2372" />
    <vehicle id="down_329" type="car" route="up" depart="2382" color="1,0,0"/>
    <vehicle id="left_330" type="car" route="left" depart="2386" />
    <vehicle id="left_331" type="car" route="left" depart="2397" />
    <vehicle id="down_332" type="car" route="up" depart="2397" color="1,0,0"/>
    <vehicle id="right_333" type="car" route="right" depart="2404" />
    <vehicle id="UP_334" type="car" route="down" depart="2415" color="1,0,0"/>
    <vehicle id="left_335" type="car" route="left" depart="2416" />
    <vehicle id="left_336" type="car" route="left" depart="2417" />
    <vehicle id="right_337" type="car" route="right" depart="2421" />
    <vehicle id="left_338" type="car" route="left" depart="2430" />
    <vehicle id="right_339" type="car" route="right" depart="2438" />
    <vehicle id="left_340" type="car" route="left" depart="2445" />
    <vehicle id="left_341" type="car" route="left" depart="2461" />
    <vehicle id="right_342" type="car" route="right" depart="2467" />
    <vehicle id="right_343" type="car" route="right" depart="2486" />
    <vehicle id="left_344" type="car" route="left" depart="2502" />
    <vehicle id="left_345" type="car" route="left" depart="2504" />
    <vehicle id="left_346" type="car" route="left" depart="2505" />
    <vehicle id="left_347" type="car" route="left" depart="2516" />
    <vehicle id="right_348" type="car" route="right" depart="2534" />
    <vehicle id="down_349" type="car" route="up" depart="2534" color="1,0,0"/>
    <vehicle id="left_350" type="car" route="left" depart="2535" />
    <vehicle id="right_351" type="car" route="right" depart="2539" />
    <vehicle id="right_352" type="car" route="right" depart="2541" />
    <vehicle id="right_353" type="car" route="right" depart="2557" />
    <vehicle id="left_354" type="car" route="left" depart="2559" />
    <vehicle id="left_355" type="car" route="left" depart="2562" />
    <vehicle id="left_356" type="car" route="left" depart="2571" />
    <vehicle id="down_357" type="car" route="up" depart="2575" color="1,0,0"/>
    <vehicle id="left_358" type="car" route="left" depart="2576" />
    <vehicle id="left_359" type="car" route="left" depart="2579" />
    <vehicle id="right_360" type="car" route="right" depart="2581" />
    <vehicle id="left_361" type="car" route="left" depart="2585" />
    <vehicle id="left_362" type="car" route="left" depart="2588" />
    <vehicle id="UP_363" type="car" route="down" depart="2588" color="1,0,0"/>
    <vehicle id="left_364" type="car" route="left" depart="2601" />
    <vehicle id="left_365" type="car" route="left" depart="2606" />
    <vehicle id="left_366" type="car" route="left" depart="2627" />
    <vehicle id="right_367" type="car" route="right" depart="2652" />
    <vehicle id="left_368" type="car" route="left" depart="2660" />
    <vehicle id="left_369" type="car" route="left" depart="2665" />
    <vehicle id="left_370" type="car" route="left" depart="2682" />
    <vehicle id="left_371" type="car" route="left" depart="2692" />
    <vehicle id="left_372" type="car" route="left" depart="2702" />
    <vehicle id="down_373" type="car" route="up" depart="2702" color="1,0,0"/>
    <vehicle id="left_374" type="car" route="left" depart="2705" />
    <vehicle id="UP_375" type="car" route="down" depart="2705" color="1,0,0"/>
    <vehicle id="left_376" type="car" route="left" depart="2712" />
    <vehicle id="right_377" type="car" route="right" depart="2717" />
    <vehicle id="left_378" type="car" route="left" depart="2719" />
    <vehicle id="right_379" type="car" route="right" depart="2722" />
    <vehicle id="down_380" type="car" route="up" depart="2736" color="1,0,0"/>
    <vehicle id="UP_381" type="car" route="down" depart="2746" color="1,0,0"/>
    <vehicle id="right_382" type="car" route="right" depart="2768" />
    <vehicle id="right_383" type="car" route="right" depart="2770" />
    <vehicle id="left_384" type="car" route="left" depart="2772" />
    <vehicle id="right_385" type="car" route="right" depart="2779" />
    <vehicle id="left_386" type="car" route="left" depart="2785" />
    <vehicle id="left_387" type="car" route="left" depart="2793" />
    <vehicle id="down_388" type="car" route="up" depart="2797" color="1,0,0"/>
    <vehicle id="left_389" type="car" route="left" depart="2818" />
    <vehicle id="left_390" type="car" route="left" depart="2829" />
    <vehicle id="right_391" type="car" route="right" depart="2830" />
    <vehicle id="left_392" type="car" route="left" depart="2847" />
    <vehicle id="right_393" type="car" route="right" depart="2862" />
    <vehicle id="right_394" type="car" route="right" depart="2870" />
    <vehicle id="left_395" type="car" route="left" depart="2871" />
    <vehicle id="down_396" type="car" route="up" depart="2877" color="1,0,0"/>
    <vehicle id="right_397" type="car" route="right" depart="2894" />
    <vehicle id="right_398" type="car" route="right" depart="2902" />
    <vehicle id="right_399" type="car" route="right" depart="2910" />
    <vehicle id="left_400" type="car" route="left" depart="2919" />
    <vehicle id="right_401" type="car" route="right" depart="2923" />
    <vehicle id="right_402" type="car" route="right" depart="2924" />
    <vehicle id="right_403" type="car" route="right" depart="2936" />
    <vehicle id="left_404" type="car" route="left" depart="2937" />
    <vehicle id="left_405" type="car" route="left" depart="2957" />
    <vehicle id="right_406" type="car" route="right" depart="2965" />
    <vehicle id="left_407" type="car" route="left" depart="2983" />
    <vehicle id="left_408" type="car" route="left" depart="3004" />
    <vehicle id="left_409" type="car" route="left" depart="3005" />
    <vehicle id="right_410" type="car" route="right" depart="3008" />
    <vehicle id="right_411" type="car" route="right" depart="3010" />
    <vehicle id="down_412" type="car" route="up" depart="3010" color="1,0,0"/>
    <vehicle id="down_413" type="car" route="up" depart="3013" color="1,0,0"/>
    <vehicle id="right_414" type="car" route="right" depart="3015" />
    <vehicle id="UP_415" type="car" route="down" depart="3024" color="1,0,0"/>
    <vehicle id="left_416" type="car" route="left" depart="3037" />
    <vehicle id="UP_417" type="car" route="down" depart="3038" color="1,0,0"/>
    <vehicle id="right_418" type="car" route="right" depart="3040" />
    <vehicle id="down_419" type="car" route="up" depart="3042" color="1,0,0"/>
    <vehicle id="down_420" type="car" route="up" depart="3047" color="1,0,0"/>
    <vehicle id="UP_421" type="car" route="down" depart="3053" color="1,0,0"/>