<routes>
        <vType id="car" accel="0.8" decel="4.5" sigma="0.5" length="5" minGap="2.5" maxSpeed="16.67" guiShape="passenger"/>
        <route id="right" edges="51o 1i 2o 52i" />
        <route id="left" edges="52o 2i 1o 51i" />
        <route id="down" edges="54o 4i 3o 53i" />
        <route id="up" edges="53o 3i 4o 54i" />
    <vehicle id="left_0" type="car" route="left" depart="0" />
    <vehicle id="left_1" type="car" route="left" depart="2" />
    <vehicle id="right_2" type="car" route="right" depart="3" />
    <vehicle id="UP_3" type="car" route="down" depart="4" color="1,0,0"/>
    <vehicle id="left_4" type="car" route="left" depart="10" />
    <vehicle id="left_5" type="car" route="left" depart="22" />
    <vehicle id="right_6" type="car" route="right" depart="25" />
    <vehicle id="right_7" type="car" route="right" depart="31" />
    <vehicle id="left_8" type="car" route="left" depart="67" />
    <vehicle id="down_9" type="car" route="up" depart="72" color="1,0,0"/>
    <vehicle id="left_10" type="car" route="left" depart="74" />
    <vehicle id="right_11" type="car" route="right" depart="81" />
    <vehicle id="right_12" type="car" route="right" depart="92" />
    <vehicle id="down_13" type="car" route="up" depart="98" color="1,0,0"/>
    <vehicle id="UP_14" type="car" route="down" depart="106" color="1,0,0"/>
    <vehicle id="left_15" type="car" route="left" depart="120" />
    <vehicle id="left_16" type="car" route="left" depart="123" />
    <vehicle id="left_17" type="car" route="left" depart="125" />
    <vehicle id="right_18" type="car" route="right" depart="126" />
    <vehicle id="right_19" type="car" route="right" depart="132" />
    <vehicle id="left_20" type="car" route="left" depart="147" />
    <vehicle id="down_21" type="car" route="up" depart="149" color="1,0,0"/>
    <vehicle id="left_22" type="car" route="left" depart="159" />
    <vehicle id="right_23" type="car" route="right" depart="171" />
    <vehicle id="right_24" type="car" route="right" depart="179" />
    <vehicle id="right_25" type="car" route="right" depart="182" />
    <vehicle id="left_26" type="car" route="left" depart="204" />
    <vehicle id="right_27" type="car" route="right" depart="216" />
    <vehicle id="down_28" type="car" route="up" depart="220" color="1,0,0"/>
    <vehicle id="right_29" type="car" route="right" depart="227" />
    <vehicle id="right_30" type="car" route="right" depart="239" />
    <vehicle id="left_31" type="car" route="left" depart="253" />
    <vehicle id="down_32" type="car" route="up" depart="256" color="1,0,0"/>
    <vehicle id="left_33" type="car" route="left" depart="258" />
    <vehicle id="left_34" type="car" route="left" depart="262" />
    <vehicle id="left_35" type="car" route="left" depart="281" />
    <vehicle id="left_36" type="car" route="left" depart="283" />
    <vehicle id="left_37" type="car" route="left" depart="291" />
    <vehicle id="right_38" type="car" route="right" depart="292" />
    <vehicle id="down_39" type="car" route="up" depart="293" color="1,0,0"/>
    <vehicle id="right_40" type="car" route="right" depart="296" />
    <vehicle id="left_41" type="car" route="left" depart="296" />
    <vehicle id="left_42" type="car" route="left" depart="298" />
    <vehicle id="left_43" type="car" route="left" depart="343" />
    <vehicle id="UP_44" type="car" route="down" depart="347" color="1,0,0"/>
    <vehicle id="left_45" type="car" route="left" depart="350" />
    <vehicle id="right_46" type="car" route="right" depart="352" />
    <vehicle id="left_47" type="car" route="left" depart="357" />
    <vehicle id="left_48" type="car" route="left" depart="359" />
    <vehicle id="right_49" type="car" route="right" depart="363" />
    <vehicle id="left_50" type="car" route="left" depart="372" />
    <vehicle id="left_51" type="car" route="left" depart="376" />
    <vehicle id="right_52" type="car" route="right" depart="389" />
    <vehicle id="right_53" type="car" route="right" depart="402" />
    <vehicle id="left_54" type="car" route="left" depart="402" />
    <vehicle id="left_55" type="car" route="left" depart="414" />
    <vehicle id="left_56" type="car" route="left" depart="430" />
    <vehicle id="UP_57" type="car" route="down" depart="451" color="1,0,0"/>
    <vehicle id="right_58" type="car" route="right" depart="459" />
    <vehicle id="down_59" type="car" route="up" depart="468" color="1,0,0"/>
    <vehicle id="right_60" type="car" route="right" depart="483" />
    <vehicle id="left_61" type="car" route="left" depart="490" />
    <vehicle id="left_62" type="car" route="left" depart="495" />
    <vehicle id="right_63" type="car" route="right" depart="496" />
    <vehicle id="right_64" type="car" route="right" depart="528" />
    <vehicle id="right_65" type="car" route="right" depart="530" />
    <vehicle id="down_66" type="car" route="up" depart="530" color="1,0,0"/>
    <vehicle id="left_67" type="car" route="left" depart="538" />
    <vehicle id="right_68" type="car" route="right" depart="543" />
    <vehicle id="left_69" type="car" route="left" depart="550" />
    <vehicle id="left_70" type="car" route="left" depart="555" />
    <vehicle id="down_71" type="car" route="up" depart="582" color="1,0,0"/>
    <vehicle id="down_72" type="car" route="up" depart="606" color="1,0,0"/>
    <vehicle id="left_73" type="car" route="left" depart="609" />
    <vehicle id="left_74" type="car" route="left" depart="613" />
    <vehicle id="right_75" type="car" route="right" depart="629" />
    <vehicle id="right_76" type="car" route="right" depart="634" />
    <vehicle id="UP_77" type="car" route="down" depart="635" color="1,0,0"/>
    <vehicle id="UP_78" type="car" route="down" depart="640" color="1,0,0"/>
    <vehicle id="right_79" type="car" route="right" depart="642" />
    <vehicle id="UP_80" type="car" route="down" depart="646" color="1,0,0"/>
    <vehicle id="left_81" type="car" route="left" depart="659" />
    <vehicle id="right_82" type="car" route="right" depart="660" />
    <vehicle id="left_83" type="car" route="left" depart="676" />
    <vehicle id="UP_84" type="car" route="down" depart="683" color="1,0,0"/>
    <vehicle id="right_85" type="car" route="right" depart="687" />
    <vehicle id="UP_86" type="car" route="down" depart="688" color="1,0,0"/>
    <vehicle id="left_87" type="car" route="left" depart="704" />
    <vehicle id="left_88" type="car" route="left" depart="706" />
    <vehicle id="right_89" type="car" route="right" depart="709" />
    <vehicle id="right_90" type="car" route="right" depart="711" />
    <vehicle id="left_91" type="car" route="left" depart="714" />
    <vehicle id="left_92" type="car" route="left" depart="727" />
    <vehicle id="right_93" type="car" route="right" depart="731" />
    <vehicle id="right_94" type="car" route="right" depart="733" />
    <vehicle id="down_95" type="car" route="up" depart="747" color="1,0,0"/>
    <vehicle id="left_96" type="car" route="left" depart="758" />
    <vehicle id="left_97" type="car" route="left" depart="782" />
    <vehicle id="left_98" type="car" route="left" depart="785" />
    <vehicle id="right_99" type="car" route="right" depart="801" />
    <vehicle id="UP_100" type="car" route="down" depart="801" color="1,0,0"/>
    <vehicle id="UP_101" type="car" route="down" depart="802" color="1,0,0"/>
    <vehicle id="right_102" type="car" route="right" depart="814" />
    <vehicle id="left_103" type="car" route="left" depart="828" />
    <vehicle id="left_104" type="car" route="left" depart="832" />
    <vehicle id="left_105" type="car" route="left" depart="841" />
    <vehicle id="left_106" type="car" route="left" depart="842" />
    <vehicle id="left_107" type="car" route="left" depart="843" />
    <vehicle id="left_108" type="car" route="left" depart="850" />
    <vehicle id="down_109" type="car" route="up" depart="851" color="1,0,0"/>
    <vehicle id="left_110" type="car" route="left" depart="865" />
    <vehicle id="left_111" type="car" route="left" depart="867" />
    <vehicle id="left_112" type="car" route="left" depart="879" />
    <vehicle id="right_113" type="car" route="right" depart="886" />
    <vehicle id="left_114" type="car" route="left" depart="892" />
    <vehicle id="right_115" type="car" route="right" depart="906" />
    <vehicle id="right_116" type="car" route="right" depart="909" />
    <vehicle id="right_117" type="car" route="right" depart="928" />
    <vehicle id="UP_118" type="car" route="down" depart="934" color="1,0,0"/>
    <vehicle id="left_119" type="car" route="left" depart="950" />
    <vehicle id="right_120" type="car" route="right" depart="961" />
    <vehicle id="left_121" type="car" route="left" depart="967" />
    <vehicle id="right_122" type="car" route="right" depart="978" />
    <vehicle id="left_123" type="car" route="left" depart="988" />
    <vehicle id="left_124" type="car" route="left" depart="999" />
    <vehicle id="left_125" type="car" route="left" depart="1008" />
    <vehicle id="UP_126" type="car" route="down" depart="1017" color="1,0,0"/>
    <vehicle id="left_127" type="car" route="left" depart="1025" />
    <vehicle id="right_128" type="car" route="right" depart="1038" />
    <vehicle id="right_129" type="car" route="right" depart="1052" />
    <vehicle id="right_130" type="car" route="right" depart="1065" />
    <vehicle id="right_131" type="car" route="right" depart="1081" />
    <vehicle id="down_132" type="car" route="up" depart="1087" color="1,0,0"/>
    <vehicle id="UP_133" type="car" route="down" depart="1088" color="1,0,0"/>
    <vehicle id="UP_134" type="car" route="down" depart="1089" color="1,0,0"/>
    <vehicle id="UP_135" type="car" route="down" depart="1090" color="1,0,0"/>
    <vehicle id="right_136" type="car" route="right" depart="1098" />
    <vehicle id="left_137" type="car" route="left" depart="1106" />
    <vehicle id="UP_138" type="car" route="down" depart="1112" color="1,0,0"/>
    <vehicle id="right_139" type="car" route="right" depart="1113" />
    <vehicle id="left_140" type="car" route="left" depart="1124" />
    <vehicle id="left_141" type="car" route="left" depart="1125" />
    <vehicle id="left_142" type="car" route="left" depart="1150" />
    <vehicle id="left_143" type="car" route="left" depart="1152" />
    <vehicle id="down_144" type="car" route="up" depart="1160" color="1,0,0"/>
    <vehicle id="right_145" type="car" route="right" depart="1180" />
    <vehicle id="down_146" type="car" route="up" depart="1182" color="1,0,0"/>
    <vehicle id="right_147" type="car" route="right" depart="1184" />
    <vehicle id="right_148" type="car" route="right" depart="1209" />
    <vehicle id="left_149" type="car" route="left" depart="1213" />
    <vehicle id="left_150" type="car" route="left" depart="1234" />
    <vehicle id="left_151" type="car" route="left" depart="1238" />
    <vehicle id="left_152" type="car" route="left" depart="1252" />
    <vehicle id="right_153" type="car" route="right" depart="1255" />
    <vehicle id="UP_154" type="car" route="down" depart="1256" color="1,0,0"/>
    <vehicle id="right_155" type="car" route="right" depart="1258" />
    <vehicle id="right_156" type="car" route="right" depart="1265" />
    <vehicle id="right_157" type="car" route="right" depart="1271" />
    <vehicle id="down_158" type="car" route="up" depart="1275" color="1,0,0"/>
    <vehicle id="right_159" type="car" route="right" depart="1277" />
    <vehicle id="right_160" type="car" route="right" depart="1294" />
    <vehicle id="right_161" type="car" route="right" depart="1307" />
    <vehicle id="left_162" type="car" route="left" depart="1311" />
    <vehicle id="right_163" type="car" route="right" depart="1319" />
    <vehicle id="UP_164" type="car" route="down" depart="1348" color="1,0,0"/>
    <vehicle id="left_165" type="car" route="left" depart="1350" />
    <vehicle id="right_166" type="car" route="right" depart="1356" />
    <vehicle id="right_167" type="car" route="right" depart="1375" />
    <vehicle id="left_168" type="car" route="left" depart="1385" />
    <vehicle id="right_169" type="car" route="right" depart="1386" />
    <vehicle id="right_170" type="car" route="right" depart="1400" />
    <vehicle id="down_171" type="car" route="up" depart="1400" color="1,0,0"/>
    <vehicle id="left_172" type="car" route="left" depart="1404" />
    <vehicle id="right_173" type="car" route="right" depart="1406" />
    <vehicle id="UP_174" type="car" route="down" depart="1428" color="1,0,0"/>
    <vehicle id="left_175" type="car" route="left" depart="1429" />
    <vehicle id="right_176" type="car" route="right" depart="1430" />
    <vehicle id="right_177" type="car" route="right" depart="1432" />
    <vehicle id="right_178" type="car" route="right" depart="1435" />
    <vehicle id="left_179" type="car" route="left" depart="1438" />
    <vehicle id="right_180" type="car" route="right" depart="1465" />
    <vehicle id="UP_181" type="car" route="down" depart="1469" color="1,0,0"/>
    <vehicle id="left_182" type="car" route="left" depart="1477" />
    <vehicle id="right_183" type="car" route="right" depart="1490" />
    <vehicle id="UP_184" type="car" route="down" depart="1491" color="1,0,0"/>
    <vehicle id="left_185" type="car" route="left" depart="1505" />
    <vehicle id="right_186" type="car" route="right" depart="1513" />
    <vehicle id="right_187" type="car" route="right" depart="1576" />
    <vehicle id="right_188" type="car" route="right" depart="1586" />
    <vehicle id="left_189" type="car" route="left" depart="1613" />
    <vehicle id="left_190" type="car" route="left" depart="1632" />
    <vehicle id="right_191" type="car" route="right" depart="1637" />
    <vehicle id="left_192" type="car" route="left" depart="1647" />
    <vehicle id="right_193" type="car" route="right" depart="1655" />
    <vehicle id="down_194" type="car" route="up" depart="1658" color="1,0,0"/>
    <vehicle id="right_195" type="car" route="right" depart="1661" />
    <vehicle id="left_196" type="car" route="left" depart="1675" />
    <vehicle id="UP_197" type="car" route="down" depart="1683" color="1,0,0"/>
    <vehicle id="right_198" type="car" route="right" depart="1688" />
    <vehicle id="UP_199" type="car" route="down" depart="1694" color="1,0,0"/>
    <vehicle id="right_200" type="car" route="right" depart="1710" />
    <vehicle id="left_201" type="car" route="left" depart="1710" />
    <vehicle id="right_202" type="car" route="right" depart="1714" />
    <vehicle id="right_203" type="car" route="right" depart="1728" />
    <vehicle id="down_204" type="car" route="up" depart="1728" color="1,0,0"/>
    <vehicle id="down_205" type="car" route="up" depart="1734" color="1,0,0"/>
    <vehicle id="right_206" type="car" route="right" depart="1776" />
    <vehicle id="left_207" type="car" route="left" depart="1778" />
    <vehicle id="right_208" type="car" route="right" depart="1783" />
    <vehicle id="down_209" type="car" route="up" depart="1793" color="1,0,0"/>
    <vehicle id="UP_210" type="car" route="down" depart="1794" color="1,0,0"/>
    <vehicle id="left_211" type="car" route="left" depart="1797" />
    <vehicle id="right_212" type="car" route="right" depart="1803" />
    <vehicle id="UP_213" type="car" route="down" depart="1803" color="1,0,0"/>
    <vehicle id="down_214" type="car" route="up" depart="1809" color="1,0,0"/>
    <vehicle id="down_215" type="car" route="up" depart="1825" color="1,0,0"/>
    <vehicle id="right_216" type="car" route="right" depart="1834" />
    <vehicle id="UP_217" type="car" route="down" depart="1838" color="1,0,0"/>
    <vehicle id="UP_218" type="car" route="down" depart="1847" color="1,0,0"/>
    <vehicle id="right_219" type="car" route="right" depart="1854" />
    <vehicle id="down_220" type="car" route="up" depart="1854" color="1,0,0"/>
    <vehicle id="right_221" type="car" route="right" depart="1858" />
    <vehicle id="left_222" type="car" route="left" depart="1889" />
    <vehicle id="down_223" type="car" route="up" depart="1897" color="1,0,0"/>
    <vehicle id="right_224" type="car" route="right" depart="1900" />
    <vehicle id="UP_225" type="car" route="down" depart="1913" color="1,0,0"/>
    <vehicle id="right_226" type="car" route="right" depart="1928" />
    <vehicle id="left_227" type="car" route="left" depart="1934" />
    <vehicle id="left_228" type="car" route="left" depart="1937" />
    <vehicle id="left_229" type="car" route="left" depart="1964" />
    <vehicle id="left_230" type="car" route="left" depart="1977" />
    <vehicle id="left_231" type="car" route="left" depart="1980" />
    <vehicle id="UP_232" type="car" route="down" depart="1987" color="1,0,0"/>
    <vehicle id="down_233" type="car" route="up" depart="1995" color="1,0,0"/>
    <vehicle id="left_234" type="car" route="left" depart="2004" />
    <vehicle id="down_235" type="car" route="up" depart="2005" color="1,0,0"/>
    <vehicle id="right_236" type="car" route="right" depart="2015" />
    <vehicle id="right_237" type="car" route="right" depart="2035" />
    <vehicle id="UP_238" type="car" route="down" depart="2054" color="1,0,0"/>
    <vehicle id="right_239" type="car" route="right" depart="2065" />
    <vehicle id="left_240" type="car" route="left" depart="2069" />
    <vehicle id="left_241" type="car" route="left" depart="2075" />
    <vehicle id="right_242" type="car" route="right" depart="2077" />
    <vehicle id="left_243" type="car" route="left" depart="2089" />
    <vehicle id="down_244" type="car" route="up" depart="2092" color="1,0,0"/>
    <vehicle id="down_245" type="car" route="up" depart="2099" color="1,0,0"/>
    <vehicle id="UP_246" type="car" route="down" depart="2123" color="1,0,0"/>
    <vehicle id="right_247" type="car" route="right" depart="2131" />
    <vehicle id="right_248" type="car" route="right" depart="2150" />
    <vehicle id="left_249" type="car" route="left" depart="2150" />
    <vehicle id="left_250" type="car" route="left" depart="2153" />
    <vehicle id="left_251" type="car" route="left" depart="2173" />
    <vehicle id="UP_252" type="car" route="down" depart="2175" color="1,0,0"/>
    <vehicle id="right_253" type="car" route="right" depart="2194" />
    <vehicle id="left_254" type="car" route="left" depart="2200" />
    <vehicle id="down_255" type="car" route="up" depart="2209" color="1,0,0"/>
    <vehicle id="left_256" type="car" route="left" depart="2219" />
    <vehicle id="right_257" type="car" route="right" depart="2225" />
    <vehicle id="right_258" type="car" route="right" depart="2227" />
    <vehicle id="down_259" type="car" route="up" depart="2232" color="1,0,0"/>
    <vehicle id="left_260" type="car" route="left" depart="2241" />
    <vehicle id="right_261" type="car" route="right" depart="2245" />
    <vehicle id="UP_262" type="car" route="down" depart="2245" color="1,0,0"/>
    <vehicle id="left_263" type="car" route="left" depart="2264" />
    <vehicle id="left_264" type="car" route="left" depart="2269" />
    <vehicle id="right_265" type="car" route="right" depart="2277" />
    <vehicle id="left_266" type="car" route="left" depart="2286" />
    <vehicle id="left_267" type="car" route="left" depart="2291" />
    <vehicle id="right_268" type="car" route="right" depart="2296" />
    <vehicle id="left_269" type="car" route="left" depart="2309" />
    <vehicle id="left_270" type="car" route="left" depart="2312" />
    <vehicle id="left_271" type="car" route="left" depart="2333" />
    <vehicle id="left_272" type="car" route="left" depart="2334" />
    <vehicle id="right_273" type="car" route="right" depart="2337" />
    <vehicle id="right_274" type="car" route="right" depart="2348" />
    <vehicle id="right_275" type="car" route="right" depart="2350" />
    <vehicle id="UP_276" type="car" route="down" depart="2352" color="1,0,0"/>
    <vehicle id="right_277" type="car" route="right" depart="2368" />
    <vehicle id="left_278" type="car" route="left" depart="2368" />
    <vehicle id="right_279" type="car" route="right" depart="2381" />
    <vehicle id="left_280" type="car" route="left" depart="2389" />
    <vehicle id="right_281" type="car" route="right" depart="2396" />
    <vehicle id="right_282" type="car" route="right" depart="2411" />
    <vehicle id="right_283" type="car" route="right" depart="2426" />
    <vehicle id="UP_284" type="car" route="down" depart="2427" color="1,0,0"/>
    <vehicle id="left_285" type="car" route="left" depart="2440" />
    <vehicle id="left_286" type="car" route="left" depart="2444" />
    <vehicle id="left_287" type="car" route="left" depart="2451" />
    <vehicle id="left_288" type="car" route="left" depart="2452" />
    <vehicle id="down_289" type="car" route="up" depart="2462" color="1,0,0"/>
    <vehicle id="right_290" type="car" route="right" depart="2501" />
    <vehicle id="left_291" type="car" route="left" depart="2503" />
    <vehicle id="left_292" type="car" route="left" depart="2505" />
    <vehicle id="left_293" type="car" route="left" depart="2514" />
    <vehicle id="right_294" type="car" route="right" depart="2528" />
    <vehicle id="right_295" type="car" route="right" depart="2530" />
    <vehicle id="right_296" type="car" route="right" depart="2548" />
    <vehicle id="right_297" type="car" route="right" depart="2549" />
    <vehicle id="right_298" type="car" route="right" depart="2557" />
    <vehicle id="left_299" type="car" route="left" depart="2560" />
    <vehicle id="right_300" type="car" route="right" depart="2575" />
    <vehicle id="left_301" type="car" route="left" depart="2581" />
    <vehicle id="right_302" type="car" route="right" depart="2596" />
    <vehicle id="left_303" type="car" route="left" depart="2597" />
    <vehicle id="left_304" type="car" route="left" depart="2607" />
    <vehicle id="UP_305" type="car" route="down" depart="2607" color="1,0,0"/>
    <vehicle id="down_306" type="car" route="up" depart="2611" color="1,0,0"/>
    <vehicle id="left_307" type="car" route="left" depart="2628" />
    <vehicle id="right_308" type="car" route="right" depart="2634" />
    <vehicle id="left_309" type="car" route="left" depart="2642" />
    <vehicle id="down_310" type="car" route="up" depart="2654" color="1,0,0"/>
    <vehicle id="right_311" type="car" route="right" depart="2660" />
    <vehicle id="right_312" type="car" route="right" depart="2668" />
    <vehicle id="UP_313" type="car" route="down" depart="2691" color="1,0,0"/>
    <vehicle id="down_314" type="car" route="up" depart="2692" color="1,0,0"/>
    <vehicle id="left_315" type="car" route="left" depart="2694" />
    <vehicle id="right_316" type="car" route="right" depart="2695" />
    <vehicle id="right_317" type="car" route="right" depart="2699" />
    <vehicle id="right_318" type="car" route="right" depart="2703" />
    <vehicle id="left_319" type="car" route="left" depart="2709" />
    <vehicle id="left_320" type="car" route="left" depart="2725" />
    <vehicle id="down_321" type="car" route="up" depart="2728" color="1,0,0"/>
    <vehicle id="right_322" type="car" route="right" depart="2736" />
    <vehicle id="down_323" type="car" route="up" depart="2740" color="1,0,0"/>
    <vehicle id="down_324" type="car" route="up" depart="2757" color="1,0,0"/>
    <vehicle id="left_325" type="car" route="left" depart="2769" />
    <vehicle id="right_326" type="car" route="right" depart="2792" />
    <vehicle id="right_327" type="car" route="right" depart="2795" />
    <vehicle id="down_328" type="car" route="up" depart="2819" color="1,0,0"/>
    <vehicle id="right_329" type="car" route="right" depart="2823" />
    <vehicle id="right_330" type="car" route="right" depart="2837" />
    <vehicle id="left_331" type="car" route="left" depart="2852" />
    <vehicle id="right_332" type="car" route="right" depart="2861" />
    <vehicle id="right_333" type="car" route="right" depart="2879" />
    <vehicle id="left_334" type="car" route="left" depart="2884" />
    <vehicle id="left_335" type="car" route="left" depart="2896" />
    <vehicle id="right_336" type="car" route="right" depart="2899" />
    <vehicle id="left_337" type="car" route="left" depart="2907" />
    <vehicle id="UP_338" type="car" route="down" depart="2907" color="1,0,0"/>
    <vehicle id="left_339" type="car" route="left" depart="2908" />
    <vehicle id="UP_340" type="car" route="down" depart="2924" color="1,0,0"/>
    <vehicle id="left_341" type="car" route="left" depart="2938" />
    <vehicle id="left_342" type="car" route="left" depart="2952" />
    <vehicle id="left_343" type="car" route="left" depart="2953" />
    <vehicle id="right_344" type="car" route="right" depart="2966" />
    <vehicle id="left_345" type="car" route="left" depart="2974" />
    <vehicle id="right_346" type="car" route="right" depart="2982" />
    <vehicle id="right_347" type="car" route="right" depart="3004" />
    <vehicle id="left_348" type="car" route="left" depart="3007" />
    <vehicle id="right_349" type="car" route="right" depart="3023" />
    <vehicle id="UP_350" type="car" route="down" depart="3025" color="1,0,0"/>
    <vehicle id="left_351" type="car" route="left" depart="3026" />
    <vehicle id="UP_352" type="car" route="down" depart="3045" color="1,0,0"/>
    <vehicle id="UP_353" type="car" route="down" depart="3057" color="1,0,0"/>
    <vehicle id="left_354" type="car" route="left" depart="3058" />
    <vehicle id="left_355" type="car" route="left" depart="3063" />
    <vehicle id="right_356" type="car" route="right" depart="3079" />
    <vehicle id="left_357" type="car" route="left" depart="3081" />
    <vehicle id="UP_358" type="car" route="down" depart="3087" color="1,0,0"/>
    <vehicle id="right_359" type="car" route="right" depart="3090" />
    <vehicle id="down_360" type="car" route="up" depart="3141" color="1,0,0"/>
    <vehicle id="left_361" type="car" route="left" depart="3151" />
    <vehicle id="left_362" type="car" route="left" depart="3158" />
    <vehicle id="left_363" type="car" route="left" depart="3162" />
    <vehicle id="left_364" type="car" route="left" depart="3173" />
    <vehicle id="right_365" type="car" route="right" depart="3178" />
    <vehicle id="left_366" type="car" route="left" depart="3182" />
    <vehicle id="right_367" type="car" route="right" depart="3191" />
    <vehicle id="right_368" type="car" route="right" depart="3196" />
    <vehicle id="left_369" type="car" route="left" depart="3199" />
    <vehicle id="left_370" type="car" route="left" depart="3203" />
    <vehicle id="right_371" type="car" route="right" depart="3229" />
    <vehicle id="right_372" type="car" route="right" depart="3249" />
    <vehicle id="down_373" type="car" route="up" depart="3251" color="1,0,0"/>
    <vehicle id="left_374" type="car" route="left" depart="3258" />
    <vehicle id="left_375" type="car" route="left" depart="3267" />
    <vehicle id="right_376" type="car" route="right" depart="3268" />
    <vehicle id="down_377" type="car" route="up" depart="3268" color="1,0,0"/>
    <vehicle id="left_378" type="car" route="left" depart="3283" />
    <vehicle id="down_379" type="car" route="up" depart="3303" color="1,0,0"/>
    <vehicle id="right_380" type="car" route="right" depart="3307" />
    <vehicle id="right_381" type="car" route="right" depart="3312" />
    <vehicle id="left_382" type="car" route="left" depart="3315" />
    <vehicle id="left_383" type="car" route="left" depart="3320" />
    <vehicle id="left_384" type="car" route="left" depart="3323" />
    <vehicle id="UP_385" type="car" route="down" depart="3326" color="1,0,0"/>
    <vehicle id="right_386" type="car" route="right" depart="3328" />
    <vehicle id="left_387" type="car" route="left" depart="3332" />
    <vehicle id="UP_388" type="car" route="down" depart="3340" color="1,0,0"/>
    <vehicle id="left_389" type="car" route="left" depart="3342" />
    <vehicle id="left_390" type="car" route="left" depart="3350" />
    <vehicle id="UP_391" type="car" route="down" depart="3374" color="1,0,0"/>
    <vehicle id="down_392" type="car" route="up" depart="3382" color="1,0,0"/>
    <vehicle id="down_393" type="car" route="up" depart="3417" color="1,0,0"/>
    <vehicle id="left_394" type="car" route="left" depart="3423" />
    <vehicle id="left_395" type="car" route="left" depart="3433" />
    <vehicle id="down_396" type="car" route="up" depart="3452" color="1,0,0"/>
    <vehicle id="right_397" type="car" route="right" depart="3469" />
    <vehicle id="UP_398" type="car" route="down" depart="3473" color="1,0,0"/>
    <vehicle id="UP_399" type="car" route="down" depart="3475" color="1,0,0"/>
    <vehicle id="right_400" type="car" route="right" depart="3478" />
    <vehicle id="right_401" type="car" route="right" depart="3494" />
    <vehicle id="right_402" type="car" route="right" depart="3495" />
    <vehicle id="left_403" type="car" route="left" depart="3499" />
    <vehicle id="right_404" type="car" route="right" depart="3504" />
    <vehicle id="right_405" type="car" route="right" depart="3515" />
    <vehicle id="left_406" type="car" route="left" depart="3523" />
    <vehicle id="right_407" type="car" route="right" depart="3528" />
    <vehicle id="right_408" type="car" route="right" depart="3542" />
    <vehicle id="down_409" type="car" route="up" depart="3542" color="1,0,0"/>
    <vehicle id="down_410" type="car" route="up" depart="3568" color="1,0,0"/>
    <vehicle id="left_411" type="car" route="left" depart="3599" />
</routes>
