<routes>
        <vType id="car" accel="0.8" decel="4.5" sigma="0.5" length="5" minGap="2.5" maxSpeed="16.67" guiShape="passenger"/>
        <route id="right" edges="51o 1i 2o 52i" />
        <route id="left" edges="52o 2i 1o 51i" />
        <route id="down" edges="54o 4i 3o 53i" />
        <route id="up" edges="53o 3i 4o 54i" />
    <vehicle id="left_0" type="car" route="left" depart="4" />
    <vehicle id="left_1" type="car" route="left" depart="5" />
    <vehicle id="right_2" type="car" route="right" depart="11" />
    <vehicle id="right_3" type="car" route="right" depart="12" />
    <vehicle id="left_4" type="car" route="left" depart="12" />
    <vehicle id="right_5" type="car" route="right" depart="19" />
    <vehicle id="left_6" type="car" route="left" depart="19" />
    <vehicle id="left_7" type="car" route="left" depart="24" />
    <vehicle id="UP_8" type="car" route="down" depart="27" color="1,0,0"/>
    <vehicle id="right_9" type="car" route="right" depart="29" />
    <vehicle id="left_10" type="car" route="left" depart="30" />
    <vehicle id="left_11" type="car" route="left" depart="35" />
    <vehicle id="right_12" type="car" route="right" depart="38" />
    <vehicle id="left_13" type="car" route="left" depart="50" />
    <vehicle id="right_14" type="car" route="right" depart="57" />
    <vehicle id="left_15" type="car" route="left" depart="58" />
    <vehicle id="right_16" type="car" route="right" depart="62" />
    <vehicle id="right_17" type="car" route="right" depart="68" />
    <vehicle id="down_18" type="car" route="up" depart="68" color="1,0,0"/>
    <vehicle id="down_19" type="car" route="up" depart="70" color="1,0,0"/>
    <vehicle id="right_20" type="car" route="right" depart="71" />
    <vehicle id="left_21" type="car" route="left" depart="73" />
    <vehicle id="left_22" type="car" route="left" depart="74" />
    <vehicle id="left_23" type="car" route="left" depart="76" />
    <vehicle id="right_24" type="car" route="right" depart="77" />
    <vehicle id="down_25" type="car" route="up" depart="81" color="1,0,0"/>
    <vehicle id="right_26" type="car" route="right" depart="88" />
    <vehicle id="left_27" type="car" route="left" depart="93" />
    <vehicle id="right_28" type="car" route="right" depart="96" />
    <vehicle id="right_29" type="car" route="right" depart="104" />
    <vehicle id="left_30" type="car" route="left" depart="105" />
    <vehicle id="left_31" type="car" route="left" depart="109" />
    <vehicle id="left_32" type="car" route="left" depart="119" />
    <vehicle id="down_33" type="car" route="up" depart="122" color="1,0,0"/>
    <vehicle id="left_34" type="car" route="left" depart="125" />
    <vehicle id="left_35" type="car" route="left" depart="129" />
    <vehicle id="down_36" type="car" route="up" depart="131" color="1,0,0"/>
    <vehicle id="right_37" type="car" route="right" depart="132" />
    <vehicle id="left_38" type="car" route="left" depart="137" />
    <vehicle id="left_39" type="car" route="left" depart="140" />
    <vehicle id="left_40" type="car" route="left" depart="141" />
    <vehicle id="left_41" type="car" route="left" depart="144" />
    <vehicle id="UP_42" type="car" route="down" depart="149" color="1,0,0"/>
    <vehicle id="left_43" type="car" route="left" depart="153" />
    <vehicle id="right_44" type="car" route="right" depart="158" />
    <vehicle id="left_45" type="car" route="left" depart="158" />
    <vehicle id="UP_46" type="car" route="down" depart="168" color="1,0,0"/>
    <vehicle id="down_47" type="car" route="up" depart="176" color="1,0,0"/>
    <vehicle id="left_48" type="car" route="left" depart="186" />
    <vehicle id="right_49" type="car" route="right" depart="187" />
    <vehicle id="UP_50" type="car" route="down" depart="193" color="1,0,0"/>
    <vehicle id="right_51" type="car" route="right" depart="194" />
    <vehicle id="right_52" type="car" route="right" depart="199" />
    <vehicle id="down_53" type="car" route="up" depart="199" color="1,0,0"/>
    <vehicle id="left_54" type="car" route="left" depart="200" />
    <vehicle id="left_55" type="car" route="left" depart="201" />
    <vehicle id="right_56" type="car" route="right" depart="202" />
    <vehicle id="UP_57" type="car" route="down" depart="202" color="1,0,0"/>
    <vehicle id="right_58" type="car" route="right" depart="204" />
    <vehicle id="right_59" type="car" route="right" depart="218" />
    <vehicle id="left_60" type="car" route="left" depart="219" />
    <vehicle id="left_61" type="car" route="left" depart="229" />
    <vehicle id="right_62" type="car" route="right" depart="235" />
    <vehicle id="left_63" type="car" route="left" depart="235" />
    <vehicle id="right_64" type="car" route="right" depart="237" />
    <vehicle id="right_65" type="car" route="right" depart="239" />
    <vehicle id="left_66" type="car" route="left" depart="239" />
    <vehicle id="right_67" type="car" route="right" depart="253" />
    <vehicle id="right_68" type="car" route="right" depart="256" />
    <vehicle id="left_69" type="car" route="left" depart="257" />
    <vehicle id="left_70" type="car" route="left" depart="268" />
    <vehicle id="down_71" type="car" route="up" depart="272" color="1,0,0"/>
    <vehicle id="UP_72" type="car" route="down" depart="273" color="1,0,0"/>
    <vehicle id="right_73" type="car" route="right" depart="276" />
    <vehicle id="UP_74" type="car" route="down" depart="279" color="1,0,0"/>
    <vehicle id="right_75" type="car" route="right" depart="283" />
    <vehicle id="UP_76" type="car" route="down" depart="283" color="1,0,0"/>
    <vehicle id="left_77" type="car" route="left" depart="288" />
    <vehicle id="right_78" type="car" route="right" depart="293" />
    <vehicle id="right_79" type="car" route="right" depart="294" />
    <vehicle id="left_80" type="car" route="left" depart="304" />
    <vehicle id="down_81" type="car" route="up" depart="306" color="1,0,0"/>
    <vehicle id="left_82" type="car" route="left" depart="307" />
    <vehicle id="left_83" type="car" route="left" depart="308" />
    <vehicle id="left_84" type="car" route="left" depart="312" />
    <vehicle id="left_85" type="car" route="left" depart="317" />
    <vehicle id="right_86" type="car" route="right" depart="318" />
    <vehicle id="left_87" type="car" route="left" depart="320" />
    <vehicle id="left_88" type="car" route="left" depart="328" />
    <vehicle id="right_89" type="car" route="right" depart="333" />
    <vehicle id="right_90" type="car" route="right" depart="336" />
    <vehicle id="right_91" type="car" route="right" depart="341" />
    <vehicle id="left_92" type="car" route="left" depart="341" />
    <vehicle id="right_93" type="car" route="right" depart="343" />
    <vehicle id="right_94" type="car" route="right" depart="347" />
    <vehicle id="left_95" type="car" route="left" depart="347" />
    <vehicle id="left_96" type="car" route="left" depart="350" />
    <vehicle id="right_97" type="car" route="right" depart="361" />
    <vehicle id="left_98" type="car" route="left" depart="367" />
    <vehicle id="right_99" type="car" route="right" depart="370" />
    <vehicle id="left_100" type="car" route="left" depart="370" />
    <vehicle id="right_101" type="car" route="right" depart="375" />
    <vehicle id="right_102" type="car" route="right" depart="382" />
    <vehicle id="UP_103" type="car" route="down" depart="383" color="1,0,0"/>
    <vehicle id="right_104" type="car" route="right" depart="389" />
    <vehicle id="left_105" type="car" route="left" depart="390" />
    <vehicle id="left_106" type="car" route="left" depart="395" />
    <vehicle id="right_107" type="car" route="right" depart="400" />
    <vehicle id="right_108" type="car" route="right" depart="408" />
    <vehicle id="down_109" type="car" route="up" depart="416" color="1,0,0"/>
    <vehicle id="left_110" type="car" route="left" depart="422" />
    <vehicle id="left_111" type="car" route="left" depart="424" />
    <vehicle id="down_112" type="car" route="up" depart="428" color="1,0,0"/>
    <vehicle id="left_113" type="car" route="left" depart="434" />
    <vehicle id="UP_114" type="car" route="down" depart="441" color="1,0,0"/>
    <vehicle id="right_115" type="car" route="right" depart="444" />
    <vehicle id="left_116" type="car" route="left" depart="446" />
    <vehicle id="right_117" type="car" route="right" depart="449" />
    <vehicle id="left_118" type="car" route="left" depart="457" />
    <vehicle id="right_119" type="car" route="right" depart="458" />
    <vehicle id="left_120" type="car" route="left" depart="466" />
    <vehicle id="left_121" type="car" route="left" depart="489" />
    <vehicle id="left_122" type="car" route="left" depart="502" />
    <vehicle id="right_123" type="car" route="right" depart="511" />
    <vehicle id="left_124" type="car" route="left" depart="515" />
    <vehicle id="left_125" type="car" route="left" depart="516" />
    <vehicle id="right_126" type="car" route="right" depart="517" />
    <vehicle id="right_127" type="car" route="right" depart="518" />
    <vehicle id="right_128" type="car" route="right" depart="519" />
    <vehicle id="left_129" type="car" route="left" depart="523" />
    <vehicle id="right_130" type="car" route="right" depart="534" />
    <vehicle id="left_131" type="car" route="left" depart="541" />
    <vehicle id="left_132" type="car" route="left" depart="542" />
    <vehicle id="left_133" type="car" route="left" depart="545" />
    <vehicle id="left_134" type="car" route="left" depart="548" />
    <vehicle id="right_135" type="car" route="right" depart="549" />
    <vehicle id="right_136" type="car" route="right" depart="563" />
    <vehicle id="UP_137" type="car" route="down" depart="564" color="1,0,0"/>
    <vehicle id="UP_138" type="car" route="down" depart="576" color="1,0,0"/>
    <vehicle id="left_139" type="car" route="left" depart="577" />
    <vehicle id="right_140" type="car" route="right" depart="578" />
    <vehicle id="left_141" type="car" route="left" depart="583" />
    <vehicle id="UP_142" type="car" route="down" depart="589" color="1,0,0"/>
    <vehicle id="right_143" type="car" route="right" depart="590" />
    <vehicle id="left_144" type="car" route="left" depart="591" />
    <vehicle id="right_145" type="car" route="right" depart="593" />
    <vehicle id="left_146" type="car" route="left" depart="595" />
    <vehicle id="left_147" type="car" route="left" depart="601" />
    <vehicle id="left_148" type="car" route="left" depart="602" />
    <vehicle id="UP_149" type="car" route="down" depart="603" color="1,0,0"/>
    <vehicle id="left_150" type="car" route="left" depart="604" />
    <vehicle id="right_151" type="car" route="right" depart="608" />
    <vehicle id="left_152" type="car" route="left" depart="613" />
    <vehicle id="right_153" type="car" route="right" depart="614" />
    <vehicle id="left_154" type="car" route="left" depart="616" />
    <vehicle id="left_155" type="car" route="left" depart="619" />
    <vehicle id="right_156" type="car" route="right" depart="623" />
    <vehicle id="right_157" type="car" route="right" depart="624" />
    <vehicle id="UP_158" type="car" route="down" depart="632" color="1,0,0"/>
    <vehicle id="left_159" type="car" route="left" depart="644" />
    <vehicle id="right_160" type="car" route="right" depart="647" />
    <vehicle id="right_161" type="car" route="right" depart="657" />
    <vehicle id="right_162" type="car" route="right" depart="670" />
    <vehicle id="right_163" type="car" route="right" depart="671" />
    <vehicle id="right_164" type="car" route="right" depart="674" />
    <vehicle id="right_165" type="car" route="right" depart="675" />
    <vehicle id="right_166" type="car" route="right" depart="682" />
    <vehicle id="right_167" type="car" route="right" depart="685" />
    <vehicle id="left_168" type="car" route="left" depart="688" />
    <vehicle id="right_169" type="car" route="right" depart="693" />
    <vehicle id="UP_170" type="car" route="down" depart="693" color="1,0,0"/>
    <vehicle id="right_171" type="car" route="right" depart="714" />
    <vehicle id="left_172" type="car" route="left" depart="718" />
    <vehicle id="right_173" type="car" route="right" depart="719" />
    <vehicle id="left_174" type="car" route="left" depart="720" />
    <vehicle id="right_175" type="car" route="right" depart="721" />
    <vehicle id="UP_176" type="car" route="down" depart="726" color="1,0,0"/>
    <vehicle id="left_177" type="car" route="left" depart="727" />
    <vehicle id="right_178" type="car" route="right" depart="729" />
    <vehicle id="left_179" type="car" route="left" depart="729" />
    <vehicle id="down_180" type="car" route="up" depart="730" color="1,0,0"/>
    <vehicle id="right_181" type="car" route="right" depart="731" />
    <vehicle id="left_182" type="car" route="left" depart="732" />
    <vehicle id="right_183" type="car" route="right" depart="735" />
    <vehicle id="left_184" type="car" route="left" depart="737" />
    <vehicle id="right_185" type="car" route="right" depart="759" />
    <vehicle id="left_186" type="car" route="left" depart="761" />
    <vehicle id="down_187" type="car" route="up" depart="761" color="1,0,0"/>
    <vehicle id="UP_188" type="car" route="down" depart="769" color="1,0,0"/>
    <vehicle id="down_189" type="car" route="up" depart="775" color="1,0,0"/>
    <vehicle id="left_190" type="car" route="left" depart="779" />
    <vehicle id="right_191" type="car" route="right" depart="802" />
    <vehicle id="down_192" type="car" route="up" depart="807" color="1,0,0"/>
    <vehicle id="right_193" type="car" route="right" depart="811" />
    <vehicle id="left_194" type="car" route="left" depart="813" />
    <vehicle id="left_195" type="car" route="left" depart="815" />
    <vehicle id="right_196" type="car" route="right" depart="820" />
    <vehicle id="left_197" type="car" route="left" depart="821" />
    <vehicle id="down_198" type="car" route="up" depart="823" color="1,0,0"/>
    <vehicle id="down_199" type="car" route="up" depart="840" color="1,0,0"/>
    <vehicle id="left_200" type="car" route="left" depart="844" />
    <vehicle id="UP_201" type="car" route="down" depart="844" color="1,0,0"/>
    <vehicle id="right_202" type="car" route="right" depart="846" />
    <vehicle id="left_203" type="car" route="left" depart="847" />
    <vehicle id="UP_204" type="car" route="down" depart="850" color="1,0,0"/>
    <vehicle id="left_205" type="car" route="left" depart="851" />
    <vehicle id="left_206" type="car" route="left" depart="856" />
    <vehicle id="UP_207" type="car" route="down" depart="856" color="1,0,0"/>
    <vehicle id="right_208" type="car" route="right" depart="857" />
    <vehicle id="left_209" type="car" route="left" depart="866" />
    <vehicle id="right_210" type="car" route="right" depart="872" />
    <vehicle id="right_211" type="car" route="right" depart="873" />
    <vehicle id="right_212" type="car" route="right" depart="886" />
    <vehicle id="right_213" type="car" route="right" depart="891" />
    <vehicle id="left_214" type="car" route="left" depart="894" />
    <vehicle id="left_215" type="car" route="left" depart="897" />
    <vehicle id="right_216" type="car" route="right" depart="908" />
    <vehicle id="UP_217" type="car" route="down" depart="926" color="1,0,0"/>
    <vehicle id="right_218" type="car" route="right" depart="928" />
    <vehicle id="down_219" type="car" route="up" depart="930" color="1,0,0"/>
    <vehicle id="left_220" type="car" route="left" depart="931" />
    <vehicle id="left_221" type="car" route="left" depart="933" />
    <vehicle id="down_222" type="car" route="up" depart="933" color="1,0,0"/>
    <vehicle id="right_223" type="car" route="right" depart="945" />
    <vehicle id="right_224" type="car" route="right" depart="949" />
    <vehicle id="down_225" type="car" route="up" depart="952" color="1,0,0"/>
    <vehicle id="down_226" type="car" route="up" depart="961" color="1,0,0"/>
    <vehicle id="left_227" type="car" route="left" depart="976" />
    <vehicle id="UP_228" type="car" route="down" depart="987" color="1,0,0"/>
    <vehicle id="right_229" type="car" route="right" depart="989" />
    <vehicle id="left_230" type="car" route="left" depart="994" />
    <vehicle id="right_231" type="car" route="right" depart="995" />
    <vehicle id="left_232" type="car" route="left" depart="996" />
    <vehicle id="left_233" type="car" route="left" depart="997" />
    <vehicle id="down_234" type="car" route="up" depart="997" color="1,0,0"/>
    <vehicle id="left_235" type="car" route="left" depart="998" />
    <vehicle id="right_236" type="car" route="right" depart="1004" />
    <vehicle id="left_237" type="car" route="left" depart="1007" />
    <vehicle id="right_238" type="car" route="right" depart="1010" />
    <vehicle id="down_239" type="car" route="up" depart="1015" color="1,0,0"/>
    <vehicle id="left_240" type="car" route="left" depart="1016" />
    <vehicle id="right_241" type="car" route="right" depart="1019" />
    <vehicle id="left_242" type="car" route="left" depart="1031" />
    <vehicle id="right_243" type="car" route="right" depart="1041" />
    <vehicle id="UP_244" type="car" route="down" depart="1043" color="1,0,0"/>
    <vehicle id="left_245" type="car" route="left" depart="1044" />
    <vehicle id="right_246" type="car" route="right" depart="1047" />
    <vehicle id="left_247" type="car" route="left" depart="1050" />
    <vehicle id="right_248" type="car" route="right" depart="1055" />
    <vehicle id="left_249" type="car" route="left" depart="1056" />
    <vehicle id="UP_250" type="car" route="down" depart="1057" color="1,0,0"/>
    <vehicle id="right_251" type="car" route="right" depart="1068" />
    <vehicle id="right_252" type="car" route="right" depart="1076" />
    <vehicle id="UP_253" type="car" route="down" depart="1081" color="1,0,0"/>
    <vehicle id="left_254" type="car" route="left" depart="1084" />
    <vehicle id="right_255" type="car" route="right" depart="1089" />
    <vehicle id="right_256" type="car" route="right" depart="1093" />
    <vehicle id="left_257" type="car" route="left" depart="1095" />
    <vehicle id="down_258" type="car" route="up" depart="1096" color="1,0,0"/>
    <vehicle id="right_259" type="car" route="right" depart="1097" />
    <vehicle id="left_260" type="car" route="left" depart="1105" />
    <vehicle id="down_261" type="car" route="up" depart="1105" color="1,0,0"/>
    <vehicle id="left_262" type="car" route="left" depart="1106" />
    <vehicle id="left_263" type="car" route="left" depart="1107" />
    <vehicle id="right_264" type="car" route="right" depart="1114" />
    <vehicle id="left_265" type="car" route="left" depart="1114" />
    <vehicle id="right_266" type="car" route="right" depart="1115" />
    <vehicle id="UP_267" type="car" route="down" depart="1127" color="1,0,0"/>
    <vehicle id="UP_268" type="car" route="down" depart="1128" color="1,0,0"/>
    <vehicle id="left_269" type="car" route="left" depart="1129" />
    <vehicle id="left_270" type="car" route="left" depart="1137" />
    <vehicle id="down_271" type="car" route="up" depart="1138" color="1,0,0"/>
    <vehicle id="right_272" type="car" route="right" depart="1139" />
    <vehicle id="right_273" type="car" route="right" depart="1145" />
    <vehicle id="left_274" type="car" route="left" depart="1153" />
    <vehicle id="right_275" type="car" route="right" depart="1156" />
    <vehicle id="right_276" type="car" route="right" depart="1163" />
    <vehicle id="left_277" type="car" route="left" depart="1169" />
    <vehicle id="left_278" type="car" route="left" depart="1170" />
    <vehicle id="right_279" type="car" route="right" depart="1171" />
    <vehicle id="right_280" type="car" route="right" depart="1183" />
    <vehicle id="left_281" type="car" route="left" depart="1183" />
    <vehicle id="right_282" type="car" route="right" depart="1192" />
    <vehicle id="right_283" type="car" route="right" depart="1193" />
    <vehicle id="UP_284" type="car" route="down" depart="1194" color="1,0,0"/>
    <vehicle id="left_285" type="car" route="left" depart="1196" />
    <vehicle id="right_286" type="car" route="right" depart="1205" />
    <vehicle id="right_287" type="car" route="right" depart="1211" />
    <vehicle id="right_288" type="car" route="right" depart="1221" />
    <vehicle id="left_289" type="car" route="left" depart="1221" />
    <vehicle id="down_290" type="car" route="up" depart="1221" color="1,0,0"/>
    <vehicle id="right_291" type="car" route="right" depart="1224" />
    <vehicle id="left_292" type="car" route="left" depart="1229" />
    <vehicle id="left_293" type="car" route="left" depart="1233" />
    <vehicle id="UP_294" type="car" route="down" depart="1239" color="1,0,0"/>
    <vehicle id="left_295" type="car" route="left" depart="1240" />
    <vehicle id="down_296" type="car" route="up" depart="1242" color="1,0,0"/>
    <vehicle id="right_297" type="car" route="right" depart="1260" />
    <vehicle id="right_298" type="car" route="right" depart="1262" />
    <vehicle id="left_299" type="car" route="left" depart="1265" />
    <vehicle id="right_300" type="car" route="right" depart="1274" />
    <vehicle id="right_301" type="car" route="right" depart="1282" />
    <vehicle id="left_302" type="car" route="left" depart="1285" />
    <vehicle id="left_303" type="car" route="left" depart="1288" />
    <vehicle id="left_304" type="car" route="left" depart="1294" />
    <vehicle id="right_305" type="car" route="right" depart="1297" />
    <vehicle id="left_306" type="car" route="left" depart="1297" />
    <vehicle id="right_307" type="car" route="right" depart="1298" />
    <vehicle id="left_308" type="car" route="left" depart="1300" />
    <vehicle id="UP_309" type="car" route="down" depart="1301" color="1,0,0"/>
    <vehicle id="left_310" type="car" route="left" depart="1308" />
    <vehicle id="right_311" type="car" route="right" depart="1311" />
    <vehicle id="down_312" type="car" route="up" depart="1314" color="1,0,0"/>
    <vehicle id="left_313" type="car" route="left" depart="1315" />
    <vehicle id="right_314" type="car" route="right" depart="1317" />
    <vehicle id="right_315" type="car" route="right" depart="1322" />
    <vehicle id="right_316" type="car" route="right" depart="1329" />
    <vehicle id="down_317" type="car" route="up" depart="1332" color="1,0,0"/>
    <vehicle id="left_318" type="car" route="left" depart="1339" />
    <vehicle id="right_319" type="car" route="right" depart="1341" />
    <vehicle id="left_320" type="car" route="left" depart="1343" />
    <vehicle id="right_321" type="car" route="right" depart="1351" />
    <vehicle id="UP_322" type="car" route="down" depart="1351" color="1,0,0"/>
    <vehicle id="right_323" type="car" route="right" depart="1353" />
    <vehicle id="right_324" type="car" route="right" depart="1357" />
    <vehicle id="right_325" type="car" route="right" depart="1359" />
    <vehicle id="left_326" type="car" route="left" depart="1359" />
    <vehicle id="right_327" type="car" route="right" depart="1365" />
    <vehicle id="right_328" type="car" route="right" depart="1380" />
    <vehicle id="right_329" type="car" route="right" depart="1382" />
    <vehicle id="left_330" type="car" route="left" depart="1387" />
    <vehicle id="down_331" type="car" route="up" depart="1391" color="1,0,0"/>
    <vehicle id="left_332" type="car" route="left" depart="1394" />
    <vehicle id="right_333" type="car" route="right" depart="1395" />
    <vehicle id="left_334" type="car" route="left" depart="1395" />
    <vehicle id="left_335" type="car" route="left" depart="1397" />
    <vehicle id="left_336" type="car" route="left" depart="1412" />
    <vehicle id="left_337" type="car" route="left" depart="1415" />
    <vehicle id="left_338" type="car" route="left" depart="1416" />
    <vehicle id="right_339" type="car" route="right" depart="1418" />
    <vehicle id="down_340" type="car" route="up" depart="1420" color="1,0,0"/>
    <vehicle id="left_341" type="car" route="left" depart="1422" />
    <vehicle id="left_342" type="car" route="left" depart="1426" />
    <vehicle id="right_343" type="car" route="right" depart="1430" />
    <vehicle id="down_344" type="car" route="up" depart="1430" color="1,0,0"/>
    <vehicle id="left_345" type="car" route="left" depart="1431" />
    <vehicle id="UP_346" type="car" route="down" depart="1432" color="1,0,0"/>
    <vehicle id="right_347" type="car" route="right" depart="1438" />
    <vehicle id="UP_348" type="car" route="down" depart="1440" color="1,0,0"/>
    <vehicle id="right_349" type="car" route="right" depart="1457" />
    <vehicle id="left_350" type="car" route="left" depart="1466" />
    <vehicle id="left_351" type="car" route="left" depart="1473" />
    <vehicle id="left_352" type="car" route="left" depart="1476" />
    <vehicle id="right_353" type="car" route="right" depart="1482" />
    <vehicle id="left_354" type="car" route="left" depart="1484" />
    <vehicle id="UP_355" type="car" route="down" depart="1486" color="1,0,0"/>
    <vehicle id="right_356" type="car" route="right" depart="1488" />
    <vehicle id="left_357" type="car" route="left" depart="1489" />
    <vehicle id="right_358" type="car" route="right" depart="1491" />
    <vehicle id="right_359" type="car" route="right" depart="1492" />
    <vehicle id="UP_360" type="car" route="down" depart="1492" color="1,0,0"/>
    <vehicle id="right_361" type="car" route="right" depart="1501" />
    <vehicle id="right_362" type="car" route="right" depart="1504" />
    <vehicle id="left_363" type="car" route="left" depart="1505" />
    <vehicle id="left_364" type="car" route="left" depart="1509" />
    <vehicle id="right_365" type="car" route="right" depart="1510" />
    <vehicle id="left_366" type="car" route="left" depart="1514" />
    <vehicle id="left_367" type="car" route="left" depart="1521" />
    <vehicle id="right_368" type="car" route="right" depart="1525" />
    <vehicle id="UP_369" type="car" route="down" depart="1535" color="1,0,0"/>
    <vehicle id="right_370" type="car" route="right" depart="1541" />
    <vehicle id="down_371" type="car" route="up" depart="1547" color="1,0,0"/>
    <vehicle id="left_372" type="car" route="left" depart="1548" />
    <vehicle id="right_373" type="car" route="right" depart="1558" />
    <vehicle id="right_374" type="car" route="right" depart="1564" />
    <vehicle id="right_375" type="car" route="right" depart="1566" />
    <vehicle id="left_376" type="car" route="left" depart="1571" />
    <vehicle id="right_377" type="car" route="right" depart="1574" />
    <vehicle id="down_378" type="car" route="up" depart="1574" color="1,0,0"/>
    <vehicle id="left_379" type="car" route="left" depart="1575" />
    <vehicle id="right_380" type="car" route="right" depart="1576" />
    <vehicle id="right_381" type="car" route="right" depart="1578" />
    <vehicle id="left_382" type="car" route="left" depart="1579" />
    <vehicle id="UP_383" type="car" route="down" depart="1592" color="1,0,0"/>
    <vehicle id="right_384" type="car" route="right" depart="1593" />
    <vehicle id="right_385" type="car" route="right" depart="1596" />
    <vehicle id="right_386" type="car" route="right" depart="1607" />
    <vehicle id="left_387" type="car" route="left" depart="1611" />
    <vehicle id="down_388" type="car" route="up" depart="1612" color="1,0,0"/>
    <vehicle id="right_389" type="car" route="right" depart="1617" />
    <vehicle id="UP_390" type="car" route="down" depart="1625" color="1,0,0"/>
    <vehicle id="right_391" type="car" route="right" depart="1630" />
    <vehicle id="left_392" type="car" route="left" depart="1633" />
    <vehicle id="right_393" type="car" route="right" depart="1643" />
    <vehicle id="left_394" type="car" route="left" depart="1646" />
    <vehicle id="left_395" type="car" route="left" depart="1653" />
    <vehicle id="right_396" type="car" route="right" depart="1654" />
    <vehicle id="right_397" type="car" route="right" depart="1655" />
    <vehicle id="right_398" type="car" route="right" depart="1664" />
    <vehicle id="right_399" type="car" route="right" depart="1666" />
    <vehicle id="left_400" type="car" route="left" depart="1673" />
    <vehicle id="down_401" type="car" route="up" depart="1675" color="1,0,0"/>
    <vehicle id="right_402" type="car" route="right" depart="1677" />
    <vehicle id="right_403" type="car" route="right" depart="1679" />
    <vehicle id="left_404" type="car" route="left" depart="1679" />
    <vehicle id="right_405" type="car" route="right" depart="1681" />
    <vehicle id="right_406" type="car" route="right" depart="1692" />
    <vehicle id="left_407" type="car" route="left" depart="1702" />
    <vehicle id="right_408" type="car" route="right" depart="1718" />
    <vehicle id="down_409" type="car" route="up" depart="1718" color="1,0,0"/>
    <vehicle id="right_410" type="car" route="right" depart="1724" />
    <vehicle id="left_411" type="car" route="left" depart="1725" />
    <vehicle id="right_412" type="car" route="right" depart="1729" />
    <vehicle id="UP_413" type="car" route="down" depart="1729" color="1,0,0"/>
    <vehicle id="down_414" type="car" route="up" depart="1732" color="1,0,0"/>
    <vehicle id="right_415" type="car" route="right" depart="1735" />
    <vehicle id="right_416" type="car" route="right" depart="1737" />
    <vehicle id="left_417" type="car" route="left" depart="1739" />
    <vehicle id="UP_418" type="car" route="down" depart="1745" color="1,0,0"/>
    <vehicle id="left_419" type="car" route="left" depart="1753" />
    <vehicle id="right_420" type="car" route="right" depart="1755" />
    <vehicle id="UP_421" type="car" route="down" depart="1762" color="1,0,0"/>
    <vehicle id="right_422" type="car" route="right" depart="1766" />