<routes>
        <vType id="car" accel="0.8" decel="4.5" sigma="0.5" length="5" minGap="2.5" maxSpeed="16.67" guiShape="passenger"/>
        <route id="right" edges="51o 1i 2o 52i" />
        <route id="left" edges="52o 2i 1o 51i" />
        <route id="down" edges="54o 4i 3o 53i" />
        <route id="up" edges="53o 3i 4o 54i" />
    <vehicle id="left_0" type="car" route="left" depart="0" />
    <vehicle id="left_1" type="car" route="left" depart="2" />
    <vehicle id="right_2" type="car" route="right" depart="3" />
    <vehicle id="UP_3" type="car" route="down" depart="4" color="1,0,0"/>
    <vehicle id="left_4" type="car" route="left" depart="10" />
    <vehicle id="right_5" type="car" route="right" depart="11" />
    <vehicle id="right_6" type="car" route="right" depart="22" />
    <vehicle id="left_7" type="car" route="left" depart="22" />
    <vehicle id="right_8" type="car" route="right" depart="25" />
    <vehicle id="right_9" type="car" route="right" depart="31" />
    <vehicle id="down_10" type="car" route="up" depart="31" color="1,0,0"/>
    <vehicle id="right_11" type="car" route="right" depart="34" />
    <vehicle id="right_12" type="car" route="right" depart="40" />
    <vehicle id="left_13" type="car" route="left" depart="41" />
    <vehicle id="right_14" type="car" route="right" depart="44" />
    <vehicle id="left_15" type="car" route="left" depart="49" />
    <vehicle id="right_16" type="car" route="right" depart="56" />
    <vehicle id="right_17" type="car" route="right" depart="63" />
    <vehicle id="right_18" type="car" route="right" depart="64" />
    <vehicle id="left_19" type="car" route="left" depart="67" />
    <vehicle id="down_20" type="car" route="up" depart="72" color="1,0,0"/>
    <vehicle id="left_21" type="car" route="left" depart="74" />
    <vehicle id="right_22" type="car" route="right" depart="81" />
    <vehicle id="down_23" type="car" route="up" depart="85" color="1,0,0"/>
    <vehicle id="right_24" type="car" route="right" depart="92" />
    <vehicle id="down_25" type="car" route="up" depart="98" color="1,0,0"/>
    <vehicle id="UP_26" type="car" route="down" depart="103" color="1,0,0"/>
    <vehicle id="UP_27" type="car" route="down" depart="106" color="1,0,0"/>
    <vehicle id="right_28" type="car" route="right" depart="115" />
    <vehicle id="left_29" type="car" route="left" depart="117" />
    <vehicle id="left_30" type="car" route="left" depart="120" />
    <vehicle id="left_31" type="car" route="left" depart="123" />
    <vehicle id="left_32" type="car" route="left" depart="125" />
    <vehicle id="right_33" type="car" route="right" depart="126" />
    <vehicle id="right_34" type="car" route="right" depart="127" />
    <vehicle id="left_35" type="car" route="left" depart="129" />
    <vehicle id="down_36" type="car" route="up" depart="129" color="1,0,0"/>
    <vehicle id="right_37" type="car" route="right" depart="132" />
    <vehicle id="left_38" type="car" route="left" depart="137" />
    <vehicle id="left_39" type="car" route="left" depart="147" />
    <vehicle id="down_40" type="car" route="up" depart="149" color="1,0,0"/>
    <vehicle id="right_41" type="car" route="right" depart="150" />
    <vehicle id="right_42" type="car" route="right" depart="152" />
    <vehicle id="left_43" type="car" route="left" depart="159" />
    <vehicle id="right_44" type="car" route="right" depart="164" />
    <vehicle id="right_45" type="car" route="right" depart="171" />
    <vehicle id="right_46" type="car" route="right" depart="179" />
    <vehicle id="right_47" type="car" route="right" depart="180" />
    <vehicle id="right_48" type="car" route="right" depart="182" />
    <vehicle id="left_49" type="car" route="left" depart="184" />
    <vehicle id="left_50" type="car" route="left" depart="204" />
    <vehicle id="right_51" type="car" route="right" depart="213" />
    <vehicle id="right_52" type="car" route="right" depart="216" />
    <vehicle id="left_53" type="car" route="left" depart="218" />
    <vehicle id="down_54" type="car" route="up" depart="220" color="1,0,0"/>
    <vehicle id="right_55" type="car" route="right" depart="227" />
    <vehicle id="left_56" type="car" route="left" depart="232" />
    <vehicle id="right_57" type="car" route="right" depart="239" />
    <vehicle id="right_58" type="car" route="right" depart="245" />
    <vehicle id="right_59" type="car" route="right" depart="250" />
    <vehicle id="left_60" type="car" route="left" depart="253" />
    <vehicle id="down_61" type="car" route="up" depart="256" color="1,0,0"/>
    <vehicle id="left_62" type="car" route="left" depart="258" />
    <vehicle id="down_63" type="car" route="up" depart="258" color="1,0,0"/>
    <vehicle id="left_64" type="car" route="left" depart="262" />
    <vehicle id="left_65" type="car" route="left" depart="265" />
    <vehicle id="right_66" type="car" route="right" depart="266" />
    <vehicle id="left_67" type="car" route="left" depart="268" />
    <vehicle id="left_68" type="car" route="left" depart="271" />
    <vehicle id="left_69" type="car" route="left" depart="273" />
    <vehicle id="left_70" type="car" route="left" depart="281" />
    <vehicle id="left_71" type="car" route="left" depart="283" />
    <vehicle id="right_72" type="car" route="right" depart="287" />
    <vehicle id="left_73" type="car" route="left" depart="287" />
    <vehicle id="left_74" type="car" route="left" depart="291" />
    <vehicle id="right_75" type="car" route="right" depart="292" />
    <vehicle id="down_76" type="car" route="up" depart="293" color="1,0,0"/>
    <vehicle id="right_77" type="car" route="right" depart="296" />
    <vehicle id="left_78" type="car" route="left" depart="296" />
    <vehicle id="left_79" type="car" route="left" depart="298" />
    <vehicle id="right_80" type="car" route="right" depart="309" />
    <vehicle id="right_81" type="car" route="right" depart="310" />
    <vehicle id="right_82" type="car" route="right" depart="311" />
    <vehicle id="left_83" type="car" route="left" depart="315" />
    <vehicle id="right_84" type="car" route="right" depart="320" />
    <vehicle id="left_85" type="car" route="left" depart="320" />
    <vehicle id="right_86" type="car" route="right" depart="329" />
    <vehicle id="left_87" type="car" route="left" depart="343" />
    <vehicle id="UP_88" type="car" route="down" depart="347" color="1,0,0"/>
    <vehicle id="right_89" type="car" route="right" depart="348" />
    <vehicle id="left_90" type="car" route="left" depart="350" />
    <vehicle id="right_91" type="car" route="right" depart="352" />
    <vehicle id="left_92" type="car" route="left" depart="354" />
    <vehicle id="left_93" type="car" route="left" depart="357" />
    <vehicle id="left_94" type="car" route="left" depart="359" />
    <vehicle id="right_95" type="car" route="right" depart="363" />
    <vehicle id="left_96" type="car" route="left" depart="369" />
    <vehicle id="left_97" type="car" route="left" depart="372" />
    <vehicle id="right_98" type="car" route="right" depart="374" />
    <vehicle id="left_99" type="car" route="left" depart="376" />
    <vehicle id="right_100" type="car" route="right" depart="389" />
    <vehicle id="left_101" type="car" route="left" depart="392" />
    <vehicle id="right_102" type="car" route="right" depart="402" />
    <vehicle id="left_103" type="car" route="left" depart="402" />
    <vehicle id="right_104" type="car" route="right" depart="406" />
    <vehicle id="left_105" type="car" route="left" depart="406" />
    <vehicle id="left_106" type="car" route="left" depart="414" />
    <vehicle id="left_107" type="car" route="left" depart="430" />
    <vehicle id="down_108" type="car" route="up" depart="434" color="1,0,0"/>
    <vehicle id="UP_109" type="car" route="down" depart="451" color="1,0,0"/>
    <vehicle id="right_110" type="car" route="right" depart="459" />
    <vehicle id="down_111" type="car" route="up" depart="468" color="1,0,0"/>
    <vehicle id="left_112" type="car" route="left" depart="469" />
    <vehicle id="right_113" type="car" route="right" depart="477" />
    <vehicle id="right_114" type="car" route="right" depart="481" />
    <vehicle id="right_115" type="car" route="right" depart="483" />
    <vehicle id="left_116" type="car" route="left" depart="484" />
    <vehicle id="left_117" type="car" route="left" depart="490" />
    <vehicle id="down_118" type="car" route="up" depart="490" color="1,0,0"/>
    <vehicle id="down_119" type="car" route="up" depart="494" color="1,0,0"/>
    <vehicle id="left_120" type="car" route="left" depart="495" />
    <vehicle id="right_121" type="car" route="right" depart="496" />
    <vehicle id="right_122" type="car" route="right" depart="501" />
    <vehicle id="down_123" type="car" route="up" depart="512" color="1,0,0"/>
    <vehicle id="right_124" type="car" route="right" depart="517" />
    <vehicle id="right_125" type="car" route="right" depart="528" />
    <vehicle id="right_126" type="car" route="right" depart="530" />
    <vehicle id="down_127" type="car" route="up" depart="530" color="1,0,0"/>
    <vehicle id="down_128" type="car" route="up" depart="531" color="1,0,0"/>
    <vehicle id="right_129" type="car" route="right" depart="533" />
    <vehicle id="left_130" type="car" route="left" depart="537" />
    <vehicle id="right_131" type="car" route="right" depart="538" />
    <vehicle id="left_132" type="car" route="left" depart="538" />
    <vehicle id="right_133" type="car" route="right" depart="540" />
    <vehicle id="right_134" type="car" route="right" depart="542" />
    <vehicle id="right_135" type="car" route="right" depart="543" />
    <vehicle id="right_136" type="car" route="right" depart="545" />
    <vehicle id="left_137" type="car" route="left" depart="548" />
    <vehicle id="left_138" type="car" route="left" depart="550" />
    <vehicle id="left_139" type="car" route="left" depart="555" />
    <vehicle id="right_140" type="car" route="right" depart="558" />
    <vehicle id="right_141" type="car" route="right" depart="562" />
    <vehicle id="right_142" type="car" route="right" depart="563" />
    <vehicle id="left_143" type="car" route="left" depart="576" />
    <vehicle id="down_144" type="car" route="up" depart="582" color="1,0,0"/>
    <vehicle id="down_145" type="car" route="up" depart="585" color="1,0,0"/>
    <vehicle id="right_146" type="car" route="right" depart="596" />
    <vehicle id="right_147" type="car" route="right" depart="601" />
    <vehicle id="right_148" type="car" route="right" depart="606" />
    <vehicle id="down_149" type="car" route="up" depart="606" color="1,0,0"/>
    <vehicle id="right_150" type="car" route="right" depart="609" />
    <vehicle id="left_151" type="car" route="left" depart="609" />
    <vehicle id="left_152" type="car" route="left" depart="613" />
    <vehicle id="left_153" type="car" route="left" depart="622" />
    <vehicle id="left_154" type="car" route="left" depart="627" />
    <vehicle id="right_155" type="car" route="right" depart="629" />
    <vehicle id="right_156" type="car" route="right" depart="634" />
    <vehicle id="left_157" type="car" route="left" depart="634" />
    <vehicle id="UP_158" type="car" route="down" depart="635" color="1,0,0"/>
    <vehicle id="UP_159" type="car" route="down" depart="640" color="1,0,0"/>
    <vehicle id="right_160" type="car" route="right" depart="642" />
    <vehicle id="UP_161" type="car" route="down" depart="646" color="1,0,0"/>
    <vehicle id="right_162" type="car" route="right" depart="649" />
    <vehicle id="left_163" type="car" route="left" depart="651" />
    <vehicle id="left_164" type="car" route="left" depart="659" />
    <vehicle id="right_165" type="car" route="right" depart="660" />
    <vehicle id="left_166" type="car" route="left" depart="660" />
    <vehicle id="right_167" type="car" route="right" depart="662" />
    <vehicle id="left_168" type="car" route="left" depart="665" />
    <vehicle id="left_169" type="car" route="left" depart="666" />
    <vehicle id="left_170" type="car" route="left" depart="673" />
    <vehicle id="left_171" type="car" route="left" depart="676" />
    <vehicle id="left_172" type="car" route="left" depart="680" />
    <vehicle id="left_173" type="car" route="left" depart="682" />
    <vehicle id="UP_174" type="car" route="down" depart="683" color="1,0,0"/>
    <vehicle id="right_175" type="car" route="right" depart="687" />
    <vehicle id="UP_176" type="car" route="down" depart="688" color="1,0,0"/>
    <vehicle id="left_177" type="car" route="left" depart="693" />
    <vehicle id="left_178" type="car" route="left" depart="694" />
    <vehicle id="left_179" type="car" route="left" depart="697" />
    <vehicle id="left_180" type="car" route="left" depart="704" />
    <vehicle id="left_181" type="car" route="left" depart="706" />
    <vehicle id="right_182" type="car" route="right" depart="709" />
    <vehicle id="left_183" type="car" route="left" depart="709" />
    <vehicle id="right_184" type="car" route="right" depart="711" />
    <vehicle id="left_185" type="car" route="left" depart="714" />
    <vehicle id="left_186" type="car" route="left" depart="721" />
    <vehicle id="right_187" type="car" route="right" depart="724" />
    <vehicle id="left_188" type="car" route="left" depart="727" />
    <vehicle id="right_189" type="car" route="right" depart="730" />
    <vehicle id="right_190" type="car" route="right" depart="731" />
    <vehicle id="right_191" type="car" route="right" depart="733" />
    <vehicle id="right_192" type="car" route="right" depart="745" />
    <vehicle id="down_193" type="car" route="up" depart="747" color="1,0,0"/>
    <vehicle id="right_194" type="car" route="right" depart="751" />
    <vehicle id="left_195" type="car" route="left" depart="752" />
    <vehicle id="left_196" type="car" route="left" depart="758" />
    <vehicle id="right_197" type="car" route="right" depart="763" />
    <vehicle id="left_198" type="car" route="left" depart="766" />
    <vehicle id="left_199" type="car" route="left" depart="782" />
    <vehicle id="left_200" type="car" route="left" depart="785" />
    <vehicle id="right_201" type="car" route="right" depart="801" />
    <vehicle id="UP_202" type="car" route="down" depart="801" color="1,0,0"/>
    <vehicle id="UP_203" type="car" route="down" depart="802" color="1,0,0"/>
    <vehicle id="right_204" type="car" route="right" depart="814" />
    <vehicle id="right_205" type="car" route="right" depart="823" />
    <vehicle id="left_206" type="car" route="left" depart="828" />
    <vehicle id="right_207" type="car" route="right" depart="830" />
    <vehicle id="left_208" type="car" route="left" depart="832" />
    <vehicle id="left_209" type="car" route="left" depart="841" />
    <vehicle id="left_210" type="car" route="left" depart="842" />
    <vehicle id="left_211" type="car" route="left" depart="843" />
    <vehicle id="left_212" type="car" route="left" depart="850" />
    <vehicle id="down_213" type="car" route="up" depart="851" color="1,0,0"/>
    <vehicle id="right_214" type="car" route="right" depart="853" />
    <vehicle id="left_215" type="car" route="left" depart="855" />
    <vehicle id="right_216" type="car" route="right" depart="857" />
    <vehicle id="left_217" type="car" route="left" depart="865" />
    <vehicle id="left_218" type="car" route="left" depart="867" />
    <vehicle id="left_219" type="car" route="left" depart="874" />
    <vehicle id="left_220" type="car" route="left" depart="875" />
    <vehicle id="left_221" type="car" route="left" depart="879" />
    <vehicle id="right_222" type="car" route="right" depart="886" />
    <vehicle id="left_223" type="car" route="left" depart="892" />
    <vehicle id="right_224" type="car" route="right" depart="906" />
    <vehicle id="right_225" type="car" route="right" depart="909" />
    <vehicle id="UP_226" type="car" route="down" depart="913" color="1,0,0"/>
    <vehicle id="left_227" type="car" route="left" depart="924" />
    <vehicle id="left_228" type="car" route="left" depart="925" />
    <vehicle id="right_229" type="car" route="right" depart="928" />
    <vehicle id="UP_230" type="car" route="down" depart="934" color="1,0,0"/>
    <vehicle id="right_231" type="car" route="right" depart="935" />
    <vehicle id="right_232" type="car" route="right" depart="939" />
    <vehicle id="left_233" type="car" route="left" depart="939" />
    <vehicle id="down_234" type="car" route="up" depart="941" color="1,0,0"/>
    <vehicle id="left_235" type="car" route="left" depart="950" />
    <vehicle id="left_236" type="car" route="left" depart="956" />
    <vehicle id="right_237" type="car" route="right" depart="961" />
    <vehicle id="left_238" type="car" route="left" depart="966" />
    <vehicle id="UP_239" type="car" route="down" depart="966" color="1,0,0"/>
    <vehicle id="left_240" type="car" route="left" depart="967" />
    <vehicle id="right_241" type="car" route="right" depart="976" />
    <vehicle id="right_242" type="car" route="right" depart="978" />
    <vehicle id="left_243" type="car" route="left" depart="988" />
    <vehicle id="right_244" type="car" route="right" depart="990" />
    <vehicle id="down_245" type="car" route="up" depart="991" color="1,0,0"/>
    <vehicle id="left_246" type="car" route="left" depart="999" />
    <vehicle id="right_247" type="car" route="right" depart="1005" />
    <vehicle id="left_248" type="car" route="left" depart="1008" />
    <vehicle id="UP_249" type="car" route="down" depart="1017" color="1,0,0"/>
    <vehicle id="right_250" type="car" route="right" depart="1018" />
    <vehicle id="right_251" type="car" route="right" depart="1019" />
    <vehicle id="left_252" type="car" route="left" depart="1025" />
    <vehicle id="left_253" type="car" route="left" depart="1031" />
    <vehicle id="right_254" type="car" route="right" depart="1036" />
    <vehicle id="right_255" type="car" route="right" depart="1038" />
    <vehicle id="right_256" type="car" route="right" depart="1049" />
    <vehicle id="right_257" type="car" route="right" depart="1052" />
    <vehicle id="left_258" type="car" route="left" depart="1057" />
    <vehicle id="right_259" type="car" route="right" depart="1065" />
    <vehicle id="right_260" type="car" route="right" depart="1071" />
    <vehicle id="UP_261" type="car" route="down" depart="1074" color="1,0,0"/>
    <vehicle id="right_262" type="car" route="right" depart="1076" />
    <vehicle id="left_263" type="car" route="left" depart="1078" />
    <vehicle id="right_264" type="car" route="right" depart="1081" />
    <vehicle id="down_265" type="car" route="up" depart="1087" color="1,0,0"/>
    <vehicle id="UP_266" type="car" route="down" depart="1088" color="1,0,0"/>
    <vehicle id="UP_267" type="car" route="down" depart="1089" color="1,0,0"/>
    <vehicle id="UP_268" type="car" route="down" depart="1090" color="1,0,0"/>
    <vehicle id="UP_269" type="car" route="down" depart="1097" color="1,0,0"/>
    <vehicle id="right_270" type="car" route="right" depart="1098" />
    <vehicle id="left_271" type="car" route="left" depart="1103" />
    <vehicle id="left_272" type="car" route="left" depart="1106" />
    <vehicle id="UP_273" type="car" route="down" depart="1112" color="1,0,0"/>
    <vehicle id="right_274" type="car" route="right" depart="1113" />
    <vehicle id="left_275" type="car" route="left" depart="1114" />
    <vehicle id="right_276" type="car" route="right" depart="1116" />
    <vehicle id="right_277" type="car" route="right" depart="1123" />
    <vehicle id="left_278" type="car" route="left" depart="1124" />
    <vehicle id="left_279" type="car" route="left" depart="1125" />
    <vehicle id="left_280" type="car" route="left" depart="1129" />
    <vehicle id="right_281" type="car" route="right" depart="1133" />
    <vehicle id="left_282" type="car" route="left" depart="1134" />
    <vehicle id="right_283" type="car" route="right" depart="1137" />
    <vehicle id="right_284" type="car" route="right" depart="1138" />
    <vehicle id="left_285" type="car" route="left" depart="1150" />
    <vehicle id="left_286" type="car" route="left" depart="1152" />
    <vehicle id="right_287" type="car" route="right" depart="1154" />
    <vehicle id="right_288" type="car" route="right" depart="1158" />
    <vehicle id="down_289" type="car" route="up" depart="1160" color="1,0,0"/>
    <vehicle id="left_290" type="car" route="left" depart="1165" />
    <vehicle id="left_291" type="car" route="left" depart="1166" />
    <vehicle id="left_292" type="car" route="left" depart="1169" />
    <vehicle id="left_293" type="car" route="left" depart="1170" />
    <vehicle id="UP_294" type="car" route="down" depart="1171" color="1,0,0"/>
    <vehicle id="left_295" type="car" route="left" depart="1175" />
    <vehicle id="down_296" type="car" route="up" depart="1176" color="1,0,0"/>
    <vehicle id="down_297" type="car" route="up" depart="1177" color="1,0,0"/>
    <vehicle id="right_298" type="car" route="right" depart="1180" />
    <vehicle id="right_299" type="car" route="right" depart="1182" />
    <vehicle id="down_300" type="car" route="up" depart="1182" color="1,0,0"/>
    <vehicle id="right_301" type="car" route="right" depart="1184" />
    <vehicle id="down_302" type="car" route="up" depart="1187" color="1,0,0"/>
    <vehicle id="left_303" type="car" route="left" depart="1193" />
    <vehicle id="right_304" type="car" route="right" depart="1209" />
    <vehicle id="down_305" type="car" route="up" depart="1209" color="1,0,0"/>
    <vehicle id="right_306" type="car" route="right" depart="1211" />
    <vehicle id="left_307" type="car" route="left" depart="1213" />
    <vehicle id="left_308" type="car" route="left" depart="1234" />
    <vehicle id="left_309" type="car" route="left" depart="1238" />
    <vehicle id="left_310" type="car" route="left" depart="1252" />
    <vehicle id="down_311" type="car" route="up" depart="1252" color="1,0,0"/>
    <vehicle id="right_312" type="car" route="right" depart="1255" />
    <vehicle id="UP_313" type="car" route="down" depart="1256" color="1,0,0"/>
    <vehicle id="right_314" type="car" route="right" depart="1258" />
    <vehicle id="right_315" type="car" route="right" depart="1265" />
    <vehicle id="right_316" type="car" route="right" depart="1271" />
    <vehicle id="down_317" type="car" route="up" depart="1275" color="1,0,0"/>
    <vehicle id="right_318" type="car" route="right" depart="1277" />
    <vehicle id="UP_319" type="car" route="down" depart="1280" color="1,0,0"/>
    <vehicle id="left_320" type="car" route="left" depart="1283" />
    <vehicle id="left_321" type="car" route="left" depart="1285" />
    <vehicle id="right_322" type="car" route="right" depart="1294" />
    <vehicle id="right_323" type="car" route="right" depart="1304" />
    <vehicle id="right_324" type="car" route="right" depart="1307" />
    <vehicle id="right_325" type="car" route="right" depart="1311" />
    <vehicle id="left_326" type="car" route="left" depart="1311" />
    <vehicle id="right_327" type="car" route="right" depart="1313" />
    <vehicle id="right_328" type="car" route="right" depart="1319" />
    <vehicle id="left_329" type="car" route="left" depart="1320" />
    <vehicle id="right_330" type="car" route="right" depart="1329" />
    <vehicle id="right_331" type="car" route="right" depart="1330" />
    <vehicle id="right_332" type="car" route="right" depart="1331" />
    <vehicle id="right_333" type="car" route="right" depart="1335" />
    <vehicle id="right_334" type="car" route="right" depart="1337" />
    <vehicle id="UP_335" type="car" route="down" depart="1338" color="1,0,0"/>
    <vehicle id="right_336" type="car" route="right" depart="1342" />
    <vehicle id="UP_337" type="car" route="down" depart="1348" color="1,0,0"/>
    <vehicle id="left_338" type="car" route="left" depart="1350" />
    <vehicle id="right_339" type="car" route="right" depart="1356" />
    <vehicle id="left_340" type="car" route="left" depart="1356" />
    <vehicle id="UP_341" type="car" route="down" depart="1357" color="1,0,0"/>
    <vehicle id="right_342" type="car" route="right" depart="1358" />
    <vehicle id="right_343" type="car" route="right" depart="1375" />
    <vehicle id="left_344" type="car" route="left" depart="1385" />
    <vehicle id="right_345" type="car" route="right" depart="1386" />
    <vehicle id="right_346" type="car" route="right" depart="1399" />
    <vehicle id="right_347" type="car" route="right" depart="1400" />
    <vehicle id="down_348" type="car" route="up" depart="1400" color="1,0,0"/>
    <vehicle id="right_349" type="car" route="right" depart="1401" />
    <vehicle id="left_350" type="car" route="left" depart="1404" />
    <vehicle id="right_351" type="car" route="right" depart="1406" />
    <vehicle id="right_352" type="car" route="right" depart="1407" />
    <vehicle id="left_353" type="car" route="left" depart="1421" />
    <vehicle id="UP_354" type="car" route="down" depart="1428" color="1,0,0"/>
    <vehicle id="left_355" type="car" route="left" depart="1429" />
    <vehicle id="right_356" type="car" route="right" depart="1430" />
    <vehicle id="right_357" type="car" route="right" depart="1432" />
    <vehicle id="right_358" type="car" route="right" depart="1435" />
    <vehicle id="left_359" type="car" route="left" depart="1438" />
    <vehicle id="right_360" type="car" route="right" depart="1440" />
    <vehicle id="left_361" type="car" route="left" depart="1443" />
    <vehicle id="right_362" type="car" route="right" depart="1451" />
    <vehicle id="right_363" type="car" route="right" depart="1465" />
    <vehicle id="UP_364" type="car" route="down" depart="1469" color="1,0,0"/>
    <vehicle id="left_365" type="car" route="left" depart="1477" />
    <vehicle id="left_366" type="car" route="left" depart="1478" />
    <vehicle id="left_367" type="car" route="left" depart="1482" />
    <vehicle id="left_368" type="car" route="left" depart="1485" />
    <vehicle id="left_369" type="car" route="left" depart="1487" />
    <vehicle id="right_370" type="car" route="right" depart="1490" />
    <vehicle id="UP_371" type="car" route="down" depart="1491" color="1,0,0"/>
    <vehicle id="left_372" type="car" route="left" depart="1495" />
    <vehicle id="left_373" type="car" route="left" depart="1502" />
    <vehicle id="left_374" type="car" route="left" depart="1505" />
    <vehicle id="right_375" type="car" route="right" depart="1510" />
    <vehicle id="right_376" type="car" route="right" depart="1513" />
    <vehicle id="right_377" type="car" route="right" depart="1515" />
    <vehicle id="left_378" type="car" route="left" depart="1518" />
    <vehicle id="right_379" type="car" route="right" depart="1523" />
    <vehicle id="down_380" type="car" route="up" depart="1523" color="1,0,0"/>
    <vehicle id="left_381" type="car" route="left" depart="1525" />
    <vehicle id="right_382" type="car" route="right" depart="1536" />
    <vehicle id="left_383" type="car" route="left" depart="1544" />
    <vehicle id="down_384" type="car" route="up" depart="1562" color="1,0,0"/>
    <vehicle id="right_385" type="car" route="right" depart="1571" />
    <vehicle id="right_386" type="car" route="right" depart="1572" />
    <vehicle id="right_387" type="car" route="right" depart="1576" />
    <vehicle id="right_388" type="car" route="right" depart="1582" />
    <vehicle id="right_389" type="car" route="right" depart="1586" />
    <vehicle id="down_390" type="car" route="up" depart="1588" color="1,0,0"/>
    <vehicle id="right_391" type="car" route="right" depart="1589" />
    <vehicle id="UP_392" type="car" route="down" depart="1600" color="1,0,0"/>
    <vehicle id="left_393" type="car" route="left" depart="1606" />
    <vehicle id="left_394" type="car" route="left" depart="1613" />
    <vehicle id="left_395" type="car" route="left" depart="1624" />
    <vehicle id="left_396" type="car" route="left" depart="1632" />
    <vehicle id="right_397" type="car" route="right" depart="1637" />
    <vehicle id="left_398" type="car" route="left" depart="1647" />
    <vehicle id="right_399" type="car" route="right" depart="1654" />
    <vehicle id="right_400" type="car" route="right" depart="1655" />
    <vehicle id="right_401" type="car" route="right" depart="1657" />
    <vehicle id="down_402" type="car" route="up" depart="1658" color="1,0,0"/>
    <vehicle id="right_403" type="car" route="right" depart="1661" />
    <vehicle id="right_404" type="car" route="right" depart="1662" />
    <vehicle id="left_405" type="car" route="left" depart="1675" />
    <vehicle id="UP_406" type="car" route="down" depart="1683" color="1,0,0"/>
    <vehicle id="right_407" type="car" route="right" depart="1688" />
    <vehicle id="down_408" type="car" route="up" depart="1688" color="1,0,0"/>
    <vehicle id="UP_409" type="car" route="down" depart="1691" color="1,0,0"/>
    <vehicle id="UP_410" type="car" route="down" depart="1694" color="1,0,0"/>
    <vehicle id="UP_411" type="car" route="down" depart="1701" color="1,0,0"/>
    <vehicle id="right_412" type="car" route="right" depart="1710" />
    <vehicle id="left_413" type="car" route="left" depart="1710" />
    <vehicle id="right_414" type="car" route="right" depart="1712" />
    <vehicle id="right_415" type="car" route="right" depart="1714" />
    <vehicle id="right_416" type="car" route="right" depart="1721" />
    <vehicle id="right_417" type="car" route="right" depart="1724" />
    <vehicle id="right_418" type="car" route="right" depart="1728" />
    <vehicle id="down_419" type="car" route="up" depart="1728" color="1,0,0"/>
    <vehicle id="left_420" type="car" route="left" depart="1729" />
    <vehicle id="left_421" type="car" route="left" depart="1730" />
    <vehicle id="down_422" type="car" route="up" depart="1734" color="1,0,0"/>
    <vehicle id="left_423" type="car" route="left" depart="1740" />