<routes>
        <vType id="car" accel="0.8" decel="4.5" sigma="0.5" length="5" minGap="2.5" maxSpeed="16.67" guiShape="passenger"/>
        <route id="right" edges="51o 1i 2o 52i" />
        <route id="left" edges="52o 2i 1o 51i" />
        <route id="down" edges="54o 4i 3o 53i" />
        <route id="up" edges="53o 3i 4o 54i" />
    <vehicle id="left_0" type="car" route="left" depart="2" />
    <vehicle id="right_1" type="car" route="right" depart="5" />
    <vehicle id="left_2" type="car" route="left" depart="8" />
    <vehicle id="right_3" type="car" route="right" depart="12" />
    <vehicle id="down_4" type="car" route="up" depart="13" color="1,0,0"/>
    <vehicle id="right_5" type="car" route="right" depart="21" />
    <vehicle id="UP_6" type="car" route="down" depart="27" color="1,0,0"/>
    <vehicle id="left_7" type="car" route="left" depart="39" />
    <vehicle id="right_8" type="car" route="right" depart="45" />
    <vehicle id="left_9" type="car" route="left" depart="67" />
    <vehicle id="down_10" type="car" route="up" depart="80" color="1,0,0"/>
    <vehicle id="right_11" type="car" route="right" depart="82" />
    <vehicle id="down_12" type="car" route="up" depart="91" color="1,0,0"/>
    <vehicle id="right_13" type="car" route="right" depart="101" />
    <vehicle id="right_14" type="car" route="right" depart="103" />
    <vehicle id="right_15" type="car" route="right" depart="110" />
    <vehicle id="right_16" type="car" route="right" depart="120" />
    <vehicle id="right_17" type="car" route="right" depart="133" />
    <vehicle id="left_18" type="car" route="left" depart="141" />
    <vehicle id="left_19" type="car" route="left" depart="149" />
    <vehicle id="left_20" type="car" route="left" depart="151" />
    <vehicle id="left_21" type="car" route="left" depart="152" />
    <vehicle id="left_22" type="car" route="left" depart="157" />
    <vehicle id="left_23" type="car" route="left" depart="173" />
    <vehicle id="left_24" type="car" route="left" depart="178" />
    <vehicle id="UP_25" type="car" route="down" depart="194" color="1,0,0"/>
    <vehicle id="right_26" type="car" route="right" depart="198" />
    <vehicle id="right_27" type="car" route="right" depart="206" />
    <vehicle id="left_28" type="car" route="left" depart="216" />
    <vehicle id="left_29" type="car" route="left" depart="229" />
    <vehicle id="UP_30" type="car" route="down" depart="250" color="1,0,0"/>
    <vehicle id="UP_31" type="car" route="down" depart="258" color="1,0,0"/>
    <vehicle id="left_32" type="car" route="left" depart="275" />
    <vehicle id="left_33" type="car" route="left" depart="276" />
    <vehicle id="right_34" type="car" route="right" depart="280" />
    <vehicle id="right_35" type="car" route="right" depart="293" />
    <vehicle id="right_36" type="car" route="right" depart="300" />
    <vehicle id="left_37" type="car" route="left" depart="300" />
    <vehicle id="left_38" type="car" route="left" depart="301" />
    <vehicle id="left_39" type="car" route="left" depart="307" />
    <vehicle id="left_40" type="car" route="left" depart="310" />
    <vehicle id="left_41" type="car" route="left" depart="319" />
    <vehicle id="right_42" type="car" route="right" depart="327" />
    <vehicle id="right_43" type="car" route="right" depart="328" />
    <vehicle id="left_44" type="car" route="left" depart="334" />
    <vehicle id="down_45" type="car" route="up" depart="340" color="1,0,0"/>
    <vehicle id="right_46" type="car" route="right" depart="347" />
    <vehicle id="left_47" type="car" route="left" depart="351" />
    <vehicle id="left_48" type="car" route="left" depart="362" />
    <vehicle id="right_49" type="car" route="right" depart="372" />
    <vehicle id="right_50" type="car" route="right" depart="379" />
    <vehicle id="left_51" type="car" route="left" depart="379" />
    <vehicle id="right_52" type="car" route="right" depart="387" />
    <vehicle id="left_53" type="car" route="left" depart="403" />
    <vehicle id="down_54" type="car" route="up" depart="405" color="1,0,0"/>
    <vehicle id="UP_55" type="car" route="down" depart="411" color="1,0,0"/>
    <vehicle id="right_56" type="car" route="right" depart="416" />
    <vehicle id="down_57" type="car" route="up" depart="439" color="1,0,0"/>
    <vehicle id="left_58" type="car" route="left" depart="450" />
    <vehicle id="right_59" type="car" route="right" depart="455" />
    <vehicle id="left_60" type="car" route="left" depart="457" />
    <vehicle id="left_61" type="car" route="left" depart="477" />
    <vehicle id="left_62" type="car" route="left" depart="479" />
    <vehicle id="left_63" type="car" route="left" depart="482" />
    <vehicle id="left_64" type="car" route="left" depart="485" />
    <vehicle id="left_65" type="car" route="left" depart="490" />
    <vehicle id="right_66" type="car" route="right" depart="496" />
    <vehicle id="left_67" type="car" route="left" depart="500" />
    <vehicle id="right_68" type="car" route="right" depart="513" />
    <vehicle id="UP_69" type="car" route="down" depart="535" color="1,0,0"/>
    <vehicle id="left_70" type="car" route="left" depart="536" />
    <vehicle id="down_71" type="car" route="up" depart="536" color="1,0,0"/>
    <vehicle id="right_72" type="car" route="right" depart="544" />
    <vehicle id="right_73" type="car" route="right" depart="548" />
    <vehicle id="left_74" type="car" route="left" depart="551" />
    <vehicle id="right_75" type="car" route="right" depart="553" />
    <vehicle id="right_76" type="car" route="right" depart="555" />
    <vehicle id="UP_77" type="car" route="down" depart="559" color="1,0,0"/>
    <vehicle id="left_78" type="car" route="left" depart="563" />
    <vehicle id="right_79" type="car" route="right" depart="592" />
    <vehicle id="right_80" type="car" route="right" depart="596" />
    <vehicle id="UP_81" type="car" route="down" depart="599" color="1,0,0"/>
    <vehicle id="left_82" type="car" route="left" depart="604" />
    <vehicle id="down_83" type="car" route="up" depart="611" color="1,0,0"/>
    <vehicle id="right_84" type="car" route="right" depart="645" />
    <vehicle id="left_85" type="car" route="left" depart="654" />
    <vehicle id="left_86" type="car" route="left" depart="684" />
    <vehicle id="right_87" type="car" route="right" depart="694" />
    <vehicle id="right_88" type="car" route="right" depart="698" />
    <vehicle id="down_89" type="car" route="up" depart="700" color="1,0,0"/>
    <vehicle id="right_90" type="car" route="right" depart="713" />
    <vehicle id="right_91" type="car" route="right" depart="720" />
    <vehicle id="right_92" type="car" route="right" depart="745" />
    <vehicle id="right_93" type="car" route="right" depart="754" />
    <vehicle id="right_94" type="car" route="right" depart="757" />
    <vehicle id="UP_95" type="car" route="down" depart="760" color="1,0,0"/>
    <vehicle id="left_96" type="car" route="left" depart="768" />
    <vehicle id="left_97" type="car" route="left" depart="770" />
    <vehicle id="left_98" type="car" route="left" depart="772" />
    <vehicle id="down_99" type="car" route="up" depart="775" color="1,0,0"/>
    <vehicle id="right_100" type="car" route="right" depart="783" />
    <vehicle id="right_101" type="car" route="right" depart="790" />
    <vehicle id="right_102" type="car" route="right" depart="791" />
    <vehicle id="right_103" type="car" route="right" depart="800" />
    <vehicle id="left_104" type="car" route="left" depart="809" />
    <vehicle id="UP_105" type="car" route="down" depart="810" color="1,0,0"/>
    <vehicle id="left_106" type="car" route="left" depart="823" />
    <vehicle id="UP_107" type="car" route="down" depart="831" color="1,0,0"/>
    <vehicle id="left_108" type="car" route="left" depart="841" />
    <vehicle id="right_109" type="car" route="right" depart="846" />
    <vehicle id="left_110" type="car" route="left" depart="854" />
    <vehicle id="right_111" type="car" route="right" depart="863" />
    <vehicle id="UP_112" type="car" route="down" depart="904" color="1,0,0"/>
    <vehicle id="right_113" type="car" route="right" depart="912" />
    <vehicle id="left_114" type="car" route="left" depart="915" />
    <vehicle id="right_115" type="car" route="right" depart="916" />
    <vehicle id="down_116" type="car" route="up" depart="928" color="1,0,0"/>
    <vehicle id="right_117" type="car" route="right" depart="939" />
    <vehicle id="right_118" type="car" route="right" depart="944" />
    <vehicle id="left_119" type="car" route="left" depart="958" />
    <vehicle id="down_120" type="car" route="up" depart="963" color="1,0,0"/>
    <vehicle id="left_121" type="car" route="left" depart="975" />
    <vehicle id="UP_122" type="car" route="down" depart="994" color="1,0,0"/>
    <vehicle id="right_123" type="car" route="right" depart="1016" />
    <vehicle id="left_124" type="car" route="left" depart="1020" />
    <vehicle id="right_125" type="car" route="right" depart="1026" />
    <vehicle id="down_126" type="car" route="up" depart="1030" color="1,0,0"/>
    <vehicle id="right_127" type="car" route="right" depart="1033" />
    <vehicle id="right_128" type="car" route="right" depart="1038" />
    <vehicle id="right_129" type="car" route="right" depart="1045" />
    <vehicle id="down_130" type="car" route="up" depart="1052" color="1,0,0"/>
    <vehicle id="left_131" type="car" route="left" depart="1054" />
    <vehicle id="right_132" type="car" route="right" depart="1055" />
    <vehicle id="UP_133" type="car" route="down" depart="1056" color="1,0,0"/>
    <vehicle id="left_134" type="car" route="left" depart="1057" />
    <vehicle id="left_135" type="car" route="left" depart="1065" />
    <vehicle id="left_136" type="car" route="left" depart="1081" />
    <vehicle id="left_137" type="car" route="left" depart="1116" />
    <vehicle id="right_138" type="car" route="right" depart="1124" />
    <vehicle id="right_139" type="car" route="right" depart="1127" />
    <vehicle id="right_140" type="car" route="right" depart="1130" />
    <vehicle id="left_141" type="car" route="left" depart="1136" />
    <vehicle id="UP_142" type="car" route="down" depart="1144" color="1,0,0"/>
    <vehicle id="right_143" type="car" route="right" depart="1149" />
    <vehicle id="left_144" type="car" route="left" depart="1158" />
    <vehicle id="right_145" type="car" route="right" depart="1182" />
    <vehicle id="right_146" type="car" route="right" depart="1193" />
    <vehicle id="left_147" type="car" route="left" depart="1193" />
    <vehicle id="left_148" type="car" route="left" depart="1220" />
    <vehicle id="right_149" type="car" route="right" depart="1222" />
    <vehicle id="right_150" type="car" route="right" depart="1239" />
    <vehicle id="right_151" type="car" route="right" depart="1242" />
    <vehicle id="left_152" type="car" route="left" depart="1247" />
    <vehicle id="left_153" type="car" route="left" depart="1278" />
    <vehicle id="down_154" type="car" route="up" depart="1314" color="1,0,0"/>
    <vehicle id="right_155" type="car" route="right" depart="1315" />
    <vehicle id="left_156" type="car" route="left" depart="1321" />
    <vehicle id="right_157" type="car" route="right" depart="1323" />
    <vehicle id="right_158" type="car" route="right" depart="1331" />
    <vehicle id="right_159" type="car" route="right" depart="1355" />
    <vehicle id="left_160" type="car" route="left" depart="1363" />
    <vehicle id="left_161" type="car" route="left" depart="1364" />
    <vehicle id="down_162" type="car" route="up" depart="1367" color="1,0,0"/>
    <vehicle id="left_163" type="car" route="left" depart="1370" />
    <vehicle id="right_164" type="car" route="right" depart="1374" />
    <vehicle id="right_165" type="car" route="right" depart="1378" />
    <vehicle id="right_166" type="car" route="right" depart="1380" />
    <vehicle id="right_167" type="car" route="right" depart="1388" />
    <vehicle id="left_168" type="car" route="left" depart="1411" />
    <vehicle id="right_169" type="car" route="right" depart="1415" />
    <vehicle id="down_170" type="car" route="up" depart="1441" color="1,0,0"/>
    <vehicle id="right_171" type="car" route="right" depart="1449" />
    <vehicle id="right_172" type="car" route="right" depart="1467" />
    <vehicle id="right_173" type="car" route="right" depart="1472" />
    <vehicle id="left_174" type="car" route="left" depart="1476" />
    <vehicle id="right_175" type="car" route="right" depart="1478" />
    <vehicle id="UP_176" type="car" route="down" depart="1481" color="1,0,0"/>
    <vehicle id="down_177" type="car" route="up" depart="1482" color="1,0,0"/>
    <vehicle id="left_178" type="car" route="left" depart="1496" />
    <vehicle id="right_179" type="car" route="right" depart="1505" />
    <vehicle id="down_180" type="car" route="up" depart="1505" color="1,0,0"/>
    <vehicle id="left_181" type="car" route="left" depart="1509" />
    <vehicle id="left_182" type="car" route="left" depart="1516" />
    <vehicle id="right_183" type="car" route="right" depart="1531" />
    <vehicle id="right_184" type="car" route="right" depart="1545" />
    <vehicle id="left_185" type="car" route="left" depart="1550" />
    <vehicle id="left_186" type="car" route="left" depart="1574" />
    <vehicle id="down_187" type="car" route="up" depart="1574" color="1,0,0"/>
    <vehicle id="left_188" type="car" route="left" depart="1577" />
    <vehicle id="right_189" type="car" route="right" depart="1584" />
    <vehicle id="right_190" type="car" route="right" depart="1589" />
    <vehicle id="left_191" type="car" route="left" depart="1593" />
    <vehicle id="left_192" type="car" route="left" depart="1600" />
    <vehicle id="UP_193" type="car" route="down" depart="1604" color="1,0,0"/>
    <vehicle id="down_194" type="car" route="up" depart="1606" color="1,0,0"/>
    <vehicle id="left_195" type="car" route="left" depart="1611" />
    <vehicle id="right_196" type="car" route="right" depart="1615" />
    <vehicle id="left_197" type="car" route="left" depart="1640" />
    <vehicle id="right_198" type="car" route="right" depart="1662" />
    <vehicle id="right_199" type="car" route="right" depart="1663" />
    <vehicle id="left_200" type="car" route="left" depart="1663" />
    <vehicle id="left_201" type="car" route="left" depart="1664" />
    <vehicle id="UP_202" type="car" route="down" depart="1688" color="1,0,0"/>
    <vehicle id="left_203" type="car" route="left" depart="1693" />
    <vehicle id="down_204" type="car" route="up" depart="1700" color="1,0,0"/>
    <vehicle id="left_205" type="car" route="left" depart="1707" />
    <vehicle id="right_206" type="car" route="right" depart="1722" />
    <vehicle id="left_207" type="car" route="left" depart="1725" />
    <vehicle id="right_208" type="car" route="right" depart="1730" />
    <vehicle id="left_209" type="car" route="left" depart="1730" />
    <vehicle id="down_210" type="car" route="up" depart="1743" color="1,0,0"/>
    <vehicle id="down_211" type="car" route="up" depart="1744" color="1,0,0"/>
    <vehicle id="down_212" type="car" route="up" depart="1749" color="1,0,0"/>
    <vehicle id="right_213" type="car" route="right" depart="1775" />
    <vehicle id="UP_214" type="car" route="down" depart="1790" color="1,0,0"/>
    <vehicle id="left_215" type="car" route="left" depart="1792" />
    <vehicle id="right_216" type="car" route="right" depart="1795" />
    <vehicle id="right_217" type="car" route="right" depart="1812" />
    <vehicle id="left_218" type="car" route="left" depart="1813" />
    <vehicle id="left_219" type="car" route="left" depart="1816" />
    <vehicle id="left_220" type="car" route="left" depart="1817" />
    <vehicle id="UP_221" type="car" route="down" depart="1824" color="1,0,0"/>
    <vehicle id="left_222" type="car" route="left" depart="1856" />
    <vehicle id="right_223" type="car" route="right" depart="1862" />
    <vehicle id="UP_224" type="car" route="down" depart="1865" color="1,0,0"/>
    <vehicle id="left_225" type="car" route="left" depart="1880" />
    <vehicle id="left_226" type="car" route="left" depart="1885" />
    <vehicle id="down_227" type="car" route="up" depart="1887" color="1,0,0"/>
    <vehicle id="right_228" type="car" route="right" depart="1888" />
    <vehicle id="left_229" type="car" route="left" depart="1888" />
    <vehicle id="left_230" type="car" route="left" depart="1889" />
    <vehicle id="UP_231" type="car" route="down" depart="1897" color="1,0,0"/>
    <vehicle id="left_232" type="car" route="left" depart="1903" />
    <vehicle id="UP_233" type="car" route="down" depart="1903" color="1,0,0"/>
    <vehicle id="UP_234" type="car" route="down" depart="1906" color="1,0,0"/>
    <vehicle id="right_235" type="car" route="right" depart="1909" />
    <vehicle id="left_236" type="car" route="left" depart="1925" />
    <vehicle id="down_237" type="car" route="up" depart="1938" color="1,0,0"/>
    <vehicle id="right_238" type="car" route="right" depart="1954" />
    <vehicle id="right_239" type="car" route="right" depart="1958" />
    <vehicle id="left_240" type="car" route="left" depart="1972" />
    <vehicle id="left_241" type="car" route="left" depart="1986" />
    <vehicle id="down_242" type="car" route="up" depart="1986" color="1,0,0"/>
    <vehicle id="right_243" type="car" route="right" depart="1995" />
    <vehicle id="right_244" type="car" route="right" depart="2002" />
    <vehicle id="right_245" type="car" route="right" depart="2006" />
    <vehicle id="left_246" type="car" route="left" depart="2020" />
    <vehicle id="left_247" type="car" route="left" depart="2026" />
    <vehicle id="left_248" type="car" route="left" depart="2027" />
    <vehicle id="left_249" type="car" route="left" depart="2032" />
    <vehicle id="left_250" type="car" route="left" depart="2033" />
    <vehicle id="right_251" type="car" route="right" depart="2046" />
    <vehicle id="left_252" type="car" route="left" depart="2052" />
    <vehicle id="left_253" type="car" route="left" depart="2058" />
    <vehicle id="left_254" type="car" route="left" depart="2063" />
    <vehicle id="left_255" type="car" route="left" depart="2073" />
    <vehicle id="left_256" type="car" route="left" depart="2075" />
    <vehicle id="right_257" type="car" route="right" depart="2085" />
    <vehicle id="UP_258" type="car" route="down" depart="2085" color="1,0,0"/>
    <vehicle id="right_259" type="car" route="right" depart="2086" />
    <vehicle id="left_260" type="car" route="left" depart="2087" />
    <vehicle id="right_261" type="car" route="right" depart="2094" />
    <vehicle id="left_262" type="car" route="left" depart="2116" />
    <vehicle id="left_263" type="car" route="left" depart="2142" />
    <vehicle id="right_264" type="car" route="right" depart="2158" />
    <vehicle id="right_265" type="car" route="right" depart="2163" />
    <vehicle id="right_266" type="car" route="right" depart="2167" />
    <vehicle id="left_267" type="car" route="left" depart="2178" />
    <vehicle id="right_268" type="car" route="right" depart="2185" />
    <vehicle id="left_269" type="car" route="left" depart="2191" />
    <vehicle id="right_270" type="car" route="right" depart="2192" />
    <vehicle id="down_271" type="car" route="up" depart="2196" color="1,0,0"/>
    <vehicle id="right_272" type="car" route="right" depart="2203" />
    <vehicle id="right_273" type="car" route="right" depart="2232" />
    <vehicle id="right_274" type="car" route="right" depart="2234" />
    <vehicle id="right_275" type="car" route="right" depart="2253" />
    <vehicle id="down_276" type="car" route="up" depart="2262" color="1,0,0"/>
    <vehicle id="right_277" type="car" route="right" depart="2266" />
    <vehicle id="left_278" type="car" route="left" depart="2273" />
    <vehicle id="left_279" type="car" route="left" depart="2274" />
    <vehicle id="UP_280" type="car" route="down" depart="2274" color="1,0,0"/>
    <vehicle id="down_281" type="car" route="up" depart="2277" color="1,0,0"/>
    <vehicle id="right_282" type="car" route="right" depart="2291" />
    <vehicle id="down_283" type="car" route="up" depart="2296" color="1,0,0"/>
    <vehicle id="UP_284" type="car" route="down" depart="2297" color="1,0,0"/>
    <vehicle id="UP_285" type="car" route="down" depart="2300" color="1,0,0"/>
    <vehicle id="left_286" type="car" route="left" depart="2301" />
    <vehicle id="left_287" type="car" route="left" depart="2304" />
    <vehicle id="right_288" type="car" route="right" depart="2317" />
    <vehicle id="down_289" type="car" route="up" depart="2319" color="1,0,0"/>
    <vehicle id="UP_290" type="car" route="down" depart="2325" color="1,0,0"/>
    <vehicle id="left_291" type="car" route="left" depart="2327" />
    <vehicle id="left_292" type="car" route="left" depart="2347" />
    <vehicle id="down_293" type="car" route="up" depart="2353" color="1,0,0"/>
    <vehicle id="left_294" type="car" route="left" depart="2358" />
    <vehicle id="left_295" type="car" route="left" depart="2366" />
    <vehicle id="down_296" type="car" route="up" depart="2368" color="1,0,0"/>
    <vehicle id="right_297" type="car" route="right" depart="2384" />
    <vehicle id="right_298" type="car" route="right" depart="2394" />
    <vehicle id="left_299" type="car" route="left" depart="2394" />
    <vehicle id="right_300" type="car" route="right" depart="2407" />
    <vehicle id="left_301" type="car" route="left" depart="2424" />
    <vehicle id="right_302" type="car" route="right" depart="2433" />
    <vehicle id="left_303" type="car" route="left" depart="2451" />
    <vehicle id="right_304" type="car" route="right" depart="2454" />
    <vehicle id="right_305" type="car" route="right" depart="2466" />
    <vehicle id="left_306" type="car" route="left" depart="2469" />
    <vehicle id="left_307" type="car" route="left" depart="2470" />
    <vehicle id="left_308" type="car" route="left" depart="2471" />
    <vehicle id="UP_309" type="car" route="down" depart="2509" color="1,0,0"/>
    <vehicle id="down_310" type="car" route="up" depart="2527" color="1,0,0"/>
    <vehicle id="UP_311" type="car" route="down" depart="2531" color="1,0,0"/>
    <vehicle id="right_312" type="car" route="right" depart="2539" />
    <vehicle id="left_313" type="car" route="left" depart="2541" />
    <vehicle id="right_314" type="car" route="right" depart="2550" />
    <vehicle id="UP_315" type="car" route="down" depart="2552" color="1,0,0"/>
    <vehicle id="left_316" type="car" route="left" depart="2554" />
    <vehicle id="left_317" type="car" route="left" depart="2555" />
    <vehicle id="left_318" type="car" route="left" depart="2564" />
    <vehicle id="right_319" type="car" route="right" depart="2578" />
    <vehicle id="down_320" type="car" route="up" depart="2581" color="1,0,0"/>
    <vehicle id="right_321" type="car" route="right" depart="2586" />
    <vehicle id="left_322" type="car" route="left" depart="2588" />
    <vehicle id="right_323" type="car" route="right" depart="2590" />
    <vehicle id="down_324" type="car" route="up" depart="2599" color="1,0,0"/>
    <vehicle id="left_325" type="car" route="left" depart="2608" />
    <vehicle id="right_326" type="car" route="right" depart="2615" />
    <vehicle id="right_327" type="car" route="right" depart="2628" />
    <vehicle id="right_328" type="car" route="right" depart="2633" />
    <vehicle id="left_329" type="car" route="left" depart="2656" />
    <vehicle id="left_330" type="car" route="left" depart="2657" />
    <vehicle id="right_331" type="car" route="right" depart="2658" />
    <vehicle id="left_332" type="car" route="left" depart="2663" />
    <vehicle id="left_333" type="car" route="left" depart="2683" />
    <vehicle id="right_334" type="car" route="right" depart="2695" />
    <vehicle id="left_335" type="car" route="left" depart="2695" />
    <vehicle id="right_336" type="car" route="right" depart="2708" />
    <vehicle id="left_337" type="car" route="left" depart="2722" />
    <vehicle id="left_338" type="car" route="left" depart="2738" />
    <vehicle id="left_339" type="car" route="left" depart="2741" />
    <vehicle id="left_340" type="car" route="left" depart="2753" />
    <vehicle id="left_341" type="car" route="left" depart="2757" />
    <vehicle id="left_342" type="car" route="left" depart="2766" />
    <vehicle id="UP_343" type="car" route="down" depart="2766" color="1,0,0"/>
    <vehicle id="left_344" type="car" route="left" depart="2767" />
    <vehicle id="left_345" type="car" route="left" depart="2774" />
    <vehicle id="right_346" type="car" route="right" depart="2775" />
    <vehicle id="down_347" type="car" route="up" depart="2776" color="1,0,0"/>
    <vehicle id="left_348" type="car" route="left" depart="2780" />
    <vehicle id="right_349" type="car" route="right" depart="2782" />
    <vehicle id="down_350" type="car" route="up" depart="2788" color="1,0,0"/>
    <vehicle id="left_351" type="car" route="left" depart="2802" />
    <vehicle id="down_352" type="car" route="up" depart="2831" color="1,0,0"/>
    <vehicle id="left_353" type="car" route="left" depart="2833" />
    <vehicle id="right_354" type="car" route="right" depart="2841" />
    <vehicle id="UP_355" type="car" route="down" depart="2861" color="1,0,0"/>
    <vehicle id="right_356" type="car" route="right" depart="2864" />
    <vehicle id="right_357" type="car" route="right" depart="2865" />
    <vehicle id="right_358" type="car" route="right" depart="2867" />
    <vehicle id="left_359" type="car" route="left" depart="2871" />
    <vehicle id="UP_360" type="car" route="down" depart="2875" color="1,0,0"/>
    <vehicle id="left_361" type="car" route="left" depart="2880" />
    <vehicle id="UP_362" type="car" route="down" depart="2883" color="1,0,0"/>
    <vehicle id="left_363" type="car" route="left" depart="2884" />
    <vehicle id="right_364" type="car" route="right" depart="2893" />
    <vehicle id="left_365" type="car" route="left" depart="2910" />
    <vehicle id="UP_366" type="car" route="down" depart="2917" color="1,0,0"/>
    <vehicle id="left_367" type="car" route="left" depart="2941" />
    <vehicle id="left_368" type="car" route="left" depart="2952" />
    <vehicle id="down_369" type="car" route="up" depart="2965" color="1,0,0"/>
    <vehicle id="right_370" type="car" route="right" depart="2966" />
    <vehicle id="left_371" type="car" route="left" depart="2967" />
    <vehicle id="right_372" type="car" route="right" depart="2969" />
    <vehicle id="left_373" type="car" route="left" depart="2971" />
    <vehicle id="right_374" type="car" route="right" depart="2980" />
    <vehicle id="down_375" type="car" route="up" depart="2988" color="1,0,0"/>
    <vehicle id="left_376" type="car" route="left" depart="2992" />
    <vehicle id="left_377" type="car" route="left" depart="3000" />
    <vehicle id="left_378" type="car" route="left" depart="3008" />
    <vehicle id="right_379" type="car" route="right" depart="3013" />
    <vehicle id="right_380" type="car" route="right" depart="3033" />
    <vehicle id="left_381" type="car" route="left" depart="3033" />
    <vehicle id="UP_382" type="car" route="down" depart="3034" color="1,0,0"/>
    <vehicle id="left_383" type="car" route="left" depart="3054" />
    <vehicle id="left_384" type="car" route="left" depart="3055" />
    <vehicle id="left_385" type="car" route="left" depart="3059" />
    <vehicle id="UP_386" type="car" route="down" depart="3060" color="1,0,0"/>
    <vehicle id="right_387" type="car" route="right" depart="3063" />
    <vehicle id="UP_388" type="car" route="down" depart="3080" color="1,0,0"/>
    <vehicle id="left_389" type="car" route="left" depart="3088" />
    <vehicle id="UP_390" type="car" route="down" depart="3098" color="1,0,0"/>
    <vehicle id="left_391" type="car" route="left" depart="3102" />
    <vehicle id="right_392" type="car" route="right" depart="3103" />
    <vehicle id="left_393" type="car" route="left" depart="3104" />
    <vehicle id="UP_394" type="car" route="down" depart="3118" color="1,0,0"/>
    <vehicle id="right_395" type="car" route="right" depart="3128" />
    <vehicle id="UP_396" type="car" route="down" depart="3142" color="1,0,0"/>
    <vehicle id="left_397" type="car" route="left" depart="3146" />
    <vehicle id="right_398" type="car" route="right" depart="3165" />
    <vehicle id="down_399" type="car" route="up" depart="3178" color="1,0,0"/>
    <vehicle id="left_400" type="car" route="left" depart="3180" />
    <vehicle id="down_401" type="car" route="up" depart="3183" color="1,0,0"/>
    <vehicle id="left_402" type="car" route="left" depart="3198" />
    <vehicle id="left_403" type="car" route="left" depart="3202" />
    <vehicle id="left_404" type="car" route="left" depart="3206" />
    <vehicle id="right_405" type="car" route="right" depart="3215" />
    <vehicle id="right_406" type="car" route="right" depart="3236" />
    <vehicle id="right_407" type="car" route="right" depart="3242" />
    <vehicle id="left_408" type="car" route="left" depart="3250" />
    <vehicle id="right_409" type="car" route="right" depart="3257" />
    <vehicle id="right_410" type="car" route="right" depart="3260" />
    <vehicle id="left_411" type="car" route="left" depart="3260" />
    <vehicle id="right_412" type="car" route="right" depart="3274" />
    <vehicle id="left_413" type="car" route="left" depart="3277" />
    <vehicle id="right_414" type="car" route="right" depart="3280" />
    <vehicle id="left_415" type="car" route="left" depart="3305" />
    <vehicle id="right_416" type="car" route="right" depart="3313" />
    <vehicle id="down_417" type="car" route="up" depart="3342" color="1,0,0"/>
    <vehicle id="UP_418" type="car" route="down" depart="3346" color="1,0,0"/>
    <vehicle id="left_419" type="car" route="left" depart="3357" />