<routes>
        <vType id="car" accel="0.8" decel="4.5" sigma="0.5" length="5" minGap="2.5" maxSpeed="16.67" guiShape="passenger"/>
        <route id="right" edges="51o 1i 2o 52i" />
        <route id="left" edges="52o 2i 1o 51i" />
        <route id="down" edges="54o 4i 3o 53i" />
        <route id="up" edges="53o 3i 4o 54i" />
    <vehicle id="left_0" type="car" route="left" depart="5" />
    <vehicle id="down_1" type="car" route="up" depart="10" color="1,0,0"/>
    <vehicle id="right_2" type="car" route="right" depart="12" />
    <vehicle id="right_3" type="car" route="right" depart="14" />
    <vehicle id="left_4" type="car" route="left" depart="19" />
    <vehicle id="right_5" type="car" route="right" depart="22" />
    <vehicle id="UP_6" type="car" route="down" depart="29" color="1,0,0"/>
    <vehicle id="left_7" type="car" route="left" depart="35" />
    <vehicle id="UP_8" type="car" route="down" depart="47" color="1,0,0"/>
    <vehicle id="left_9" type="car" route="left" depart="56" />
    <vehicle id="right_10" type="car" route="right" depart="61" />
    <vehicle id="right_11" type="car" route="right" depart="62" />
    <vehicle id="UP_12" type="car" route="down" depart="62" color="1,0,0"/>
    <vehicle id="right_13" type="car" route="right" depart="68" />
    <vehicle id="UP_14" type="car" route="down" depart="78" color="1,0,0"/>
    <vehicle id="right_15" type="car" route="right" depart="81" />
    <vehicle id="left_16" type="car" route="left" depart="92" />
    <vehicle id="down_17" type="car" route="up" depart="104" color="1,0,0"/>
    <vehicle id="left_18" type="car" route="left" depart="105" />
    <vehicle id="right_19" type="car" route="right" depart="108" />
    <vehicle id="left_20" type="car" route="left" depart="118" />
    <vehicle id="left_21" type="car" route="left" depart="138" />
    <vehicle id="right_22" type="car" route="right" depart="143" />
    <vehicle id="left_23" type="car" route="left" depart="157" />
    <vehicle id="down_24" type="car" route="up" depart="157" color="1,0,0"/>
    <vehicle id="right_25" type="car" route="right" depart="164" />
    <vehicle id="left_26" type="car" route="left" depart="192" />
    <vehicle id="right_27" type="car" route="right" depart="198" />
    <vehicle id="left_28" type="car" route="left" depart="206" />
    <vehicle id="left_29" type="car" route="left" depart="217" />
    <vehicle id="right_30" type="car" route="right" depart="220" />
    <vehicle id="right_31" type="car" route="right" depart="221" />
    <vehicle id="left_32" type="car" route="left" depart="224" />
    <vehicle id="right_33" type="car" route="right" depart="235" />
    <vehicle id="right_34" type="car" route="right" depart="267" />
    <vehicle id="right_35" type="car" route="right" depart="275" />
    <vehicle id="left_36" type="car" route="left" depart="286" />
    <vehicle id="left_37" type="car" route="left" depart="289" />
    <vehicle id="right_38" type="car" route="right" depart="315" />
    <vehicle id="left_39" type="car" route="left" depart="323" />
    <vehicle id="left_40" type="car" route="left" depart="333" />
    <vehicle id="left_41" type="car" route="left" depart="334" />
    <vehicle id="left_42" type="car" route="left" depart="338" />
    <vehicle id="right_43" type="car" route="right" depart="341" />
    <vehicle id="left_44" type="car" route="left" depart="344" />
    <vehicle id="right_45" type="car" route="right" depart="345" />
    <vehicle id="left_46" type="car" route="left" depart="368" />
    <vehicle id="UP_47" type="car" route="down" depart="373" color="1,0,0"/>
    <vehicle id="left_48" type="car" route="left" depart="381" />
    <vehicle id="left_49" type="car" route="left" depart="412" />
    <vehicle id="left_50" type="car" route="left" depart="414" />
    <vehicle id="right_51" type="car" route="right" depart="448" />
    <vehicle id="left_52" type="car" route="left" depart="453" />
    <vehicle id="left_53" type="car" route="left" depart="455" />
    <vehicle id="left_54" type="car" route="left" depart="482" />
    <vehicle id="down_55" type="car" route="up" depart="492" color="1,0,0"/>
    <vehicle id="left_56" type="car" route="left" depart="507" />
    <vehicle id="right_57" type="car" route="right" depart="541" />
    <vehicle id="down_58" type="car" route="up" depart="543" color="1,0,0"/>
    <vehicle id="left_59" type="car" route="left" depart="549" />
    <vehicle id="right_60" type="car" route="right" depart="553" />
    <vehicle id="right_61" type="car" route="right" depart="559" />
    <vehicle id="UP_62" type="car" route="down" depart="564" color="1,0,0"/>
    <vehicle id="left_63" type="car" route="left" depart="579" />
    <vehicle id="UP_64" type="car" route="down" depart="597" color="1,0,0"/>
    <vehicle id="down_65" type="car" route="up" depart="604" color="1,0,0"/>
    <vehicle id="right_66" type="car" route="right" depart="605" />
    <vehicle id="left_67" type="car" route="left" depart="641" />
    <vehicle id="down_68" type="car" route="up" depart="643" color="1,0,0"/>
    <vehicle id="right_69" type="car" route="right" depart="655" />
    <vehicle id="left_70" type="car" route="left" depart="655" />
    <vehicle id="UP_71" type="car" route="down" depart="685" color="1,0,0"/>
    <vehicle id="right_72" type="car" route="right" depart="688" />
    <vehicle id="right_73" type="car" route="right" depart="704" />
    <vehicle id="left_74" type="car" route="left" depart="708" />
    <vehicle id="left_75" type="car" route="left" depart="749" />
    <vehicle id="right_76" type="car" route="right" depart="751" />
    <vehicle id="left_77" type="car" route="left" depart="768" />
    <vehicle id="left_78" type="car" route="left" depart="778" />
    <vehicle id="left_79" type="car" route="left" depart="782" />
    <vehicle id="left_80" type="car" route="left" depart="787" />
    <vehicle id="left_81" type="car" route="left" depart="788" />
    <vehicle id="left_82" type="car" route="left" depart="792" />
    <vehicle id="left_83" type="car" route="left" depart="793" />
    <vehicle id="right_84" type="car" route="right" depart="794" />
    <vehicle id="left_85" type="car" route="left" depart="797" />
    <vehicle id="right_86" type="car" route="right" depart="801" />
    <vehicle id="left_87" type="car" route="left" depart="805" />
    <vehicle id="left_88" type="car" route="left" depart="811" />
    <vehicle id="right_89" type="car" route="right" depart="818" />
    <vehicle id="left_90" type="car" route="left" depart="819" />
    <vehicle id="left_91" type="car" route="left" depart="822" />
    <vehicle id="left_92" type="car" route="left" depart="829" />
    <vehicle id="right_93" type="car" route="right" depart="830" />
    <vehicle id="right_94" type="car" route="right" depart="835" />
    <vehicle id="left_95" type="car" route="left" depart="851" />
    <vehicle id="right_96" type="car" route="right" depart="868" />
    <vehicle id="right_97" type="car" route="right" depart="871" />
    <vehicle id="UP_98" type="car" route="down" depart="880" color="1,0,0"/>
    <vehicle id="down_99" type="car" route="up" depart="889" color="1,0,0"/>
    <vehicle id="right_100" type="car" route="right" depart="901" />
    <vehicle id="down_101" type="car" route="up" depart="903" color="1,0,0"/>
    <vehicle id="right_102" type="car" route="right" depart="931" />
    <vehicle id="UP_103" type="car" route="down" depart="933" color="1,0,0"/>
    <vehicle id="right_104" type="car" route="right" depart="935" />
    <vehicle id="right_105" type="car" route="right" depart="946" />
    <vehicle id="left_106" type="car" route="left" depart="953" />
    <vehicle id="UP_107" type="car" route="down" depart="954" color="1,0,0"/>
    <vehicle id="right_108" type="car" route="right" depart="955" />
    <vehicle id="left_109" type="car" route="left" depart="959" />
    <vehicle id="left_110" type="car" route="left" depart="963" />
    <vehicle id="left_111" type="car" route="left" depart="972" />
    <vehicle id="left_112" type="car" route="left" depart="997" />
    <vehicle id="right_113" type="car" route="right" depart="1012" />
    <vehicle id="left_114" type="car" route="left" depart="1041" />
    <vehicle id="left_115" type="car" route="left" depart="1042" />
    <vehicle id="left_116" type="car" route="left" depart="1043" />
    <vehicle id="right_117" type="car" route="right" depart="1046" />
    <vehicle id="right_118" type="car" route="right" depart="1053" />
    <vehicle id="left_119" type="car" route="left" depart="1072" />
    <vehicle id="left_120" type="car" route="left" depart="1074" />
    <vehicle id="UP_121" type="car" route="down" depart="1088" color="1,0,0"/>
    <vehicle id="left_122" type="car" route="left" depart="1097" />
    <vehicle id="left_123" type="car" route="left" depart="1098" />
    <vehicle id="UP_124" type="car" route="down" depart="1099" color="1,0,0"/>
    <vehicle id="UP_125" type="car" route="down" depart="1102" color="1,0,0"/>
    <vehicle id="left_126" type="car" route="left" depart="1130" />
    <vehicle id="left_127" type="car" route="left" depart="1141" />
    <vehicle id="right_128" type="car" route="right" depart="1163" />
    <vehicle id="right_129" type="car" route="right" depart="1166" />
    <vehicle id="left_130" type="car" route="left" depart="1168" />
    <vehicle id="UP_131" type="car" route="down" depart="1178" color="1,0,0"/>
    <vehicle id="left_132" type="car" route="left" depart="1191" />
    <vehicle id="left_133" type="car" route="left" depart="1196" />
    <vehicle id="right_134" type="car" route="right" depart="1212" />
    <vehicle id="right_135" type="car" route="right" depart="1219" />
    <vehicle id="right_136" type="car" route="right" depart="1223" />
    <vehicle id="right_137" type="car" route="right" depart="1241" />
    <vehicle id="left_138" type="car" route="left" depart="1244" />
    <vehicle id="left_139" type="car" route="left" depart="1251" />
    <vehicle id="right_140" type="car" route="right" depart="1264" />
    <vehicle id="left_141" type="car" route="left" depart="1275" />
    <vehicle id="right_142" type="car" route="right" depart="1278" />
    <vehicle id="left_143" type="car" route="left" depart="1278" />
    <vehicle id="right_144" type="car" route="right" depart="1281" />
    <vehicle id="right_145" type="car" route="right" depart="1285" />
    <vehicle id="left_146" type="car" route="left" depart="1285" />
    <vehicle id="right_147" type="car" route="right" depart="1296" />
    <vehicle id="right_148" type="car" route="right" depart="1299" />
    <vehicle id="left_149" type="car" route="left" depart="1299" />
    <vehicle id="down_150" type="car" route="up" depart="1307" color="1,0,0"/>
    <vehicle id="UP_151" type="car" route="down" depart="1312" color="1,0,0"/>
    <vehicle id="left_152" type="car" route="left" depart="1315" />
    <vehicle id="right_153" type="car" route="right" depart="1325" />
    <vehicle id="right_154" type="car" route="right" depart="1329" />
    <vehicle id="left_155" type="car" route="left" depart="1337" />
    <vehicle id="left_156" type="car" route="left" depart="1341" />
    <vehicle id="left_157" type="car" route="left" depart="1355" />
    <vehicle id="right_158" type="car" route="right" depart="1359" />
    <vehicle id="down_159" type="car" route="up" depart="1363" color="1,0,0"/>
    <vehicle id="right_160" type="car" route="right" depart="1368" />
    <vehicle id="left_161" type="car" route="left" depart="1373" />
    <vehicle id="right_162" type="car" route="right" depart="1396" />
    <vehicle id="left_163" type="car" route="left" depart="1396" />
    <vehicle id="right_164" type="car" route="right" depart="1405" />
    <vehicle id="down_165" type="car" route="up" depart="1414" color="1,0,0"/>
    <vehicle id="right_166" type="car" route="right" depart="1423" />
    <vehicle id="right_167" type="car" route="right" depart="1432" />
    <vehicle id="left_168" type="car" route="left" depart="1433" />
    <vehicle id="left_169" type="car" route="left" depart="1441" />
    <vehicle id="down_170" type="car" route="up" depart="1453" color="1,0,0"/>
    <vehicle id="right_171" type="car" route="right" depart="1459" />
    <vehicle id="right_172" type="car" route="right" depart="1460" />
    <vehicle id="UP_173" type="car" route="down" depart="1468" color="1,0,0"/>
    <vehicle id="right_174" type="car" route="right" depart="1481" />
    <vehicle id="right_175" type="car" route="right" depart="1489" />
    <vehicle id="right_176" type="car" route="right" depart="1501" />
    <vehicle id="right_177" type="car" route="right" depart="1519" />
    <vehicle id="left_178" type="car" route="left" depart="1539" />
    <vehicle id="left_179" type="car" route="left" depart="1542" />
    <vehicle id="UP_180" type="car" route="down" depart="1549" color="1,0,0"/>
    <vehicle id="down_181" type="car" route="up" depart="1552" color="1,0,0"/>
    <vehicle id="UP_182" type="car" route="down" depart="1558" color="1,0,0"/>
    <vehicle id="right_183" type="car" route="right" depart="1562" />
    <vehicle id="right_184" type="car" route="right" depart="1564" />
    <vehicle id="down_185" type="car" route="up" depart="1575" color="1,0,0"/>
    <vehicle id="left_186" type="car" route="left" depart="1584" />
    <vehicle id="down_187" type="car" route="up" depart="1587" color="1,0,0"/>
    <vehicle id="left_188" type="car" route="left" depart="1621" />
    <vehicle id="left_189" type="car" route="left" depart="1631" />
    <vehicle id="UP_190" type="car" route="down" depart="1635" color="1,0,0"/>
    <vehicle id="right_191" type="car" route="right" depart="1641" />
    <vehicle id="left_192" type="car" route="left" depart="1645" />
    <vehicle id="left_193" type="car" route="left" depart="1648" />
    <vehicle id="right_194" type="car" route="right" depart="1651" />
    <vehicle id="right_195" type="car" route="right" depart="1657" />
    <vehicle id="left_196" type="car" route="left" depart="1664" />
    <vehicle id="left_197" type="car" route="left" depart="1679" />
    <vehicle id="left_198" type="car" route="left" depart="1681" />
    <vehicle id="right_199" type="car" route="right" depart="1720" />
    <vehicle id="left_200" type="car" route="left" depart="1721" />
    <vehicle id="left_201" type="car" route="left" depart="1736" />
    <vehicle id="right_202" type="car" route="right" depart="1742" />
    <vehicle id="UP_203" type="car" route="down" depart="1744" color="1,0,0"/>
    <vehicle id="left_204" type="car" route="left" depart="1752" />
    <vehicle id="right_205" type="car" route="right" depart="1761" />
    <vehicle id="down_206" type="car" route="up" depart="1763" color="1,0,0"/>
    <vehicle id="right_207" type="car" route="right" depart="1765" />
    <vehicle id="down_208" type="car" route="up" depart="1770" color="1,0,0"/>
    <vehicle id="left_209" type="car" route="left" depart="1775" />
    <vehicle id="right_210" type="car" route="right" depart="1790" />
    <vehicle id="left_211" type="car" route="left" depart="1792" />
    <vehicle id="UP_212" type="car" route="down" depart="1799" color="1,0,0"/>
    <vehicle id="right_213" type="car" route="right" depart="1803" />
    <vehicle id="right_214" type="car" route="right" depart="1805" />
    <vehicle id="right_215" type="car" route="right" depart="1815" />
    <vehicle id="right_216" type="car" route="right" depart="1836" />
    <vehicle id="down_217" type="car" route="up" depart="1842" color="1,0,0"/>
    <vehicle id="right_218" type="car" route="right" depart="1852" />
    <vehicle id="right_219" type="car" route="right" depart="1854" />
    <vehicle id="left_220" type="car" route="left" depart="1865" />
    <vehicle id="right_221" type="car" route="right" depart="1871" />
    <vehicle id="left_222" type="car" route="left" depart="1880" />
    <vehicle id="left_223" type="car" route="left" depart="1898" />
    <vehicle id="right_224" type="car" route="right" depart="1910" />
    <vehicle id="left_225" type="car" route="left" depart="1919" />
    <vehicle id="left_226" type="car" route="left" depart="1920" />
    <vehicle id="right_227" type="car" route="right" depart="1934" />
    <vehicle id="left_228" type="car" route="left" depart="1949" />
    <vehicle id="right_229" type="car" route="right" depart="1953" />
    <vehicle id="left_230" type="car" route="left" depart="1953" />
    <vehicle id="down_231" type="car" route="up" depart="1963" color="1,0,0"/>
    <vehicle id="left_232" type="car" route="left" depart="1966" />
    <vehicle id="UP_233" type="car" route="down" depart="1970" color="1,0,0"/>
    <vehicle id="left_234" type="car" route="left" depart="1989" />
    <vehicle id="right_235" type="car" route="right" depart="2006" />
    <vehicle id="right_236" type="car" route="right" depart="2026" />
    <vehicle id="right_237" type="car" route="right" depart="2039" />
    <vehicle id="right_238" type="car" route="right" depart="2043" />
    <vehicle id="right_239" type="car" route="right" depart="2047" />
    <vehicle id="left_240" type="car" route="left" depart="2056" />
    <vehicle id="right_241" type="car" route="right" depart="2057" />
    <vehicle id="left_242" type="car" route="left" depart="2061" />
    <vehicle id="right_243" type="car" route="right" depart="2067" />
    <vehicle id="right_244" type="car" route="right" depart="2071" />
    <vehicle id="right_245" type="car" route="right" depart="2074" />
    <vehicle id="left_246" type="car" route="left" depart="2075" />
    <vehicle id="right_247" type="car" route="right" depart="2101" />
    <vehicle id="left_248" type="car" route="left" depart="2104" />
    <vehicle id="right_249" type="car" route="right" depart="2121" />
    <vehicle id="left_250" type="car" route="left" depart="2122" />
    <vehicle id="left_251" type="car" route="left" depart="2123" />
    <vehicle id="left_252" type="car" route="left" depart="2129" />
    <vehicle id="left_253" type="car" route="left" depart="2130" />
    <vehicle id="right_254" type="car" route="right" depart="2131" />
    <vehicle id="right_255" type="car" route="right" depart="2146" />
    <vehicle id="right_256" type="car" route="right" depart="2147" />
    <vehicle id="right_257" type="car" route="right" depart="2149" />
    <vehicle id="left_258" type="car" route="left" depart="2159" />
    <vehicle id="right_259" type="car" route="right" depart="2161" />
    <vehicle id="right_260" type="car" route="right" depart="2166" />
    <vehicle id="left_261" type="car" route="left" depart="2167" />
    <vehicle id="left_262" type="car" route="left" depart="2170" />
    <vehicle id="right_263" type="car" route="right" depart="2186" />
    <vehicle id="UP_264" type="car" route="down" depart="2186" color="1,0,0"/>
    <vehicle id="right_265" type="car" route="right" depart="2187" />
    <vehicle id="left_266" type="car" route="left" depart="2199" />
    <vehicle id="right_267" type="car" route="right" depart="2217" />
    <vehicle id="down_268" type="car" route="up" depart="2230" color="1,0,0"/>
    <vehicle id="left_269" type="car" route="left" depart="2238" />
    <vehicle id="right_270" type="car" route="right" depart="2243" />
    <vehicle id="down_271" type="car" route="up" depart="2267" color="1,0,0"/>
    <vehicle id="right_272" type="car" route="right" depart="2268" />
    <vehicle id="left_273" type="car" route="left" depart="2268" />
    <vehicle id="right_274" type="car" route="right" depart="2269" />
    <vehicle id="right_275" type="car" route="right" depart="2279" />
    <vehicle id="right_276" type="car" route="right" depart="2284" />
    <vehicle id="right_277" type="car" route="right" depart="2291" />
    <vehicle id="down_278" type="car" route="up" depart="2296" color="1,0,0"/>
    <vehicle id="left_279" type="car" route="left" depart="2301" />
    <vehicle id="down_280" type="car" route="up" depart="2302" color="1,0,0"/>
    <vehicle id="right_281" type="car" route="right" depart="2317" />
    <vehicle id="left_282" type="car" route="left" depart="2318" />
    <vehicle id="right_283" type="car" route="right" depart="2327" />
    <vehicle id="right_284" type="car" route="right" depart="2330" />
    <vehicle id="right_285" type="car" route="right" depart="2335" />
    <vehicle id="right_286" type="car" route="right" depart="2342" />
    <vehicle id="right_287" type="car" route="right" depart="2343" />
    <vehicle id="down_288" type="car" route="up" depart="2347" color="1,0,0"/>
    <vehicle id="left_289" type="car" route="left" depart="2361" />
    <vehicle id="left_290" type="car" route="left" depart="2362" />
    <vehicle id="left_291" type="car" route="left" depart="2363" />
    <vehicle id="right_292" type="car" route="right" depart="2378" />
    <vehicle id="UP_293" type="car" route="down" depart="2385" color="1,0,0"/>
    <vehicle id="UP_294" type="car" route="down" depart="2391" color="1,0,0"/>
    <vehicle id="right_295" type="car" route="right" depart="2399" />
    <vehicle id="left_296" type="car" route="left" depart="2400" />
    <vehicle id="right_297" type="car" route="right" depart="2406" />
    <vehicle id="right_298" type="car" route="right" depart="2434" />
    <vehicle id="UP_299" type="car" route="down" depart="2447" color="1,0,0"/>
    <vehicle id="left_300" type="car" route="left" depart="2464" />
    <vehicle id="right_301" type="car" route="right" depart="2469" />
    <vehicle id="left_302" type="car" route="left" depart="2487" />
    <vehicle id="left_303" type="car" route="left" depart="2497" />
    <vehicle id="right_304" type="car" route="right" depart="2502" />
    <vehicle id="down_305" type="car" route="up" depart="2516" color="1,0,0"/>
    <vehicle id="down_306" type="car" route="up" depart="2518" color="1,0,0"/>
    <vehicle id="left_307" type="car" route="left" depart="2524" />
    <vehicle id="left_308" type="car" route="left" depart="2525" />
    <vehicle id="UP_309" type="car" route="down" depart="2531" color="1,0,0"/>
    <vehicle id="down_310" type="car" route="up" depart="2541" color="1,0,0"/>
    <vehicle id="left_311" type="car" route="left" depart="2550" />
    <vehicle id="right_312" type="car" route="right" depart="2552" />
    <vehicle id="left_313" type="car" route="left" depart="2554" />
    <vehicle id="right_314" type="car" route="right" depart="2555" />
    <vehicle id="right_315" type="car" route="right" depart="2563" />
    <vehicle id="right_316" type="car" route="right" depart="2567" />
    <vehicle id="left_317" type="car" route="left" depart="2581" />
    <vehicle id="right_318" type="car" route="right" depart="2584" />
    <vehicle id="left_319" type="car" route="left" depart="2587" />
    <vehicle id="left_320" type="car" route="left" depart="2592" />
    <vehicle id="left_321" type="car" route="left" depart="2600" />
    <vehicle id="left_322" type="car" route="left" depart="2601" />
    <vehicle id="UP_323" type="car" route="down" depart="2603" color="1,0,0"/>
    <vehicle id="left_324" type="car" route="left" depart="2618" />
    <vehicle id="left_325" type="car" route="left" depart="2619" />
    <vehicle id="right_326" type="car" route="right" depart="2635" />
    <vehicle id="down_327" type="car" route="up" depart="2647" color="1,0,0"/>
    <vehicle id="left_328" type="car" route="left" depart="2656" />
    <vehicle id="down_329" type="car" route="up" depart="2679" color="1,0,0"/>
    <vehicle id="right_330" type="car" route="right" depart="2698" />
    <vehicle id="right_331" type="car" route="right" depart="2699" />
    <vehicle id="UP_332" type="car" route="down" depart="2699" color="1,0,0"/>
    <vehicle id="left_333" type="car" route="left" depart="2703" />
    <vehicle id="right_334" type="car" route="right" depart="2711" />
    <vehicle id="right_335" type="car" route="right" depart="2714" />
    <vehicle id="right_336" type="car" route="right" depart="2728" />
    <vehicle id="right_337" type="car" route="right" depart="2731" />
    <vehicle id="right_338" type="car" route="right" depart="2735" />
    <vehicle id="left_339" type="car" route="left" depart="2737" />
    <vehicle id="right_340" type="car" route="right" depart="2749" />
    <vehicle id="right_341" type="car" route="right" depart="2756" />
    <vehicle id="UP_342" type="car" route="down" depart="2757" color="1,0,0"/>
    <vehicle id="right_343" type="car" route="right" depart="2763" />
    <vehicle id="left_344" type="car" route="left" depart="2763" />
    <vehicle id="down_345" type="car" route="up" depart="2768" color="1,0,0"/>
    <vehicle id="right_346" type="car" route="right" depart="2773" />
    <vehicle id="right_347" type="car" route="right" depart="2781" />
    <vehicle id="left_348" type="car" route="left" depart="2802" />
    <vehicle id="left_349" type="car" route="left" depart="2803" />
    <vehicle id="left_350" type="car" route="left" depart="2805" />
    <vehicle id="left_351" type="car" route="left" depart="2812" />
    <vehicle id="left_352" type="car" route="left" depart="2820" />
    <vehicle id="right_353" type="car" route="right" depart="2827" />
    <vehicle id="right_354" type="car" route="right" depart="2836" />
    <vehicle id="left_355" type="car" route="left" depart="2853" />
    <vehicle id="right_356" type="car" route="right" depart="2863" />
    <vehicle id="down_357" type="car" route="up" depart="2874" color="1,0,0"/>
    <vehicle id="down_358" type="car" route="up" depart="2880" color="1,0,0"/>
    <vehicle id="left_359" type="car" route="left" depart="2883" />
    <vehicle id="right_360" type="car" route="right" depart="2886" />
    <vehicle id="left_361" type="car" route="left" depart="2888" />
    <vehicle id="right_362" type="car" route="right" depart="2891" />
    <vehicle id="right_363" type="car" route="right" depart="2892" />
    <vehicle id="left_364" type="car" route="left" depart="2895" />
    <vehicle id="right_365" type="car" route="right" depart="2898" />
    <vehicle id="right_366" type="car" route="right" depart="2907" />
    <vehicle id="right_367" type="car" route="right" depart="2913" />
    <vehicle id="left_368" type="car" route="left" depart="2920" />
    <vehicle id="right_369" type="car" route="right" depart="2934" />
    <vehicle id="down_370" type="car" route="up" depart="2937" color="1,0,0"/>
    <vehicle id="right_371" type="car" route="right" depart="2949" />
    <vehicle id="right_372" type="car" route="right" depart="2956" />
    <vehicle id="down_373" type="car" route="up" depart="2981" color="1,0,0"/>
    <vehicle id="left_374" type="car" route="left" depart="2987" />
    <vehicle id="right_375" type="car" route="right" depart="2988" />
    <vehicle id="left_376" type="car" route="left" depart="2989" />
    <vehicle id="UP_377" type="car" route="down" depart="2995" color="1,0,0"/>
    <vehicle id="UP_378" type="car" route="down" depart="2996" color="1,0,0"/>
    <vehicle id="right_379" type="car" route="right" depart="2999" />
    <vehicle id="right_380" type="car" route="right" depart="3000" />
    <vehicle id="left_381" type="car" route="left" depart="3020" />
    <vehicle id="left_382" type="car" route="left" depart="3029" />
    <vehicle id="left_383" type="car" route="left" depart="3030" />
    <vehicle id="down_384" type="car" route="up" depart="3034" color="1,0,0"/>
    <vehicle id="right_385" type="car" route="right" depart="3040" />
    <vehicle id="left_386" type="car" route="left" depart="3056" />
    <vehicle id="right_387" type="car" route="right" depart="3086" />
    <vehicle id="UP_388" type="car" route="down" depart="3092" color="1,0,0"/>
    <vehicle id="left_389" type="car" route="left" depart="3100" />
    <vehicle id="left_390" type="car" route="left" depart="3101" />
    <vehicle id="UP_391" type="car" route="down" depart="3104" color="1,0,0"/>
    <vehicle id="right_392" type="car" route="right" depart="3105" />
    <vehicle id="left_393" type="car" route="left" depart="3108" />
    <vehicle id="left_394" type="car" route="left" depart="3110" />
    <vehicle id="left_395" type="car" route="left" depart="3116" />
    <vehicle id="down_396" type="car" route="up" depart="3120" color="1,0,0"/>
    <vehicle id="down_397" type="car" route="up" depart="3121" color="1,0,0"/>
    <vehicle id="down_398" type="car" route="up" depart="3126" color="1,0,0"/>
    <vehicle id="right_399" type="car" route="right" depart="3134" />
    <vehicle id="UP_400" type="car" route="down" depart="3143" color="1,0,0"/>
    <vehicle id="left_401" type="car" route="left" depart="3145" />
    <vehicle id="left_402" type="car" route="left" depart="3147" />
    <vehicle id="right_403" type="car" route="right" depart="3164" />
    <vehicle id="right_404" type="car" route="right" depart="3167" />
    <vehicle id="right_405" type="car" route="right" depart="3174" />
    <vehicle id="right_406" type="car" route="right" depart="3182" />
    <vehicle id="left_407" type="car" route="left" depart="3182" />
    <vehicle id="left_408" type="car" route="left" depart="3199" />
    <vehicle id="right_409" type="car" route="right" depart="3200" />
    <vehicle id="left_410" type="car" route="left" depart="3205" />
    <vehicle id="right_411" type="car" route="right" depart="3211" />
    <vehicle id="down_412" type="car" route="up" depart="3217" color="1,0,0"/>
    <vehicle id="right_413" type="car" route="right" depart="3219" />
    <vehicle id="left_414" type="car" route="left" depart="3224" />
    <vehicle id="right_415" type="car" route="right" depart="3231" />
    <vehicle id="right_416" type="car" route="right" depart="3235" />
    <vehicle id="right_417" type="car" route="right" depart="3238" />
    <vehicle id="left_418" type="car" route="left" depart="3238" />
    <vehicle id="right_419" type="car" route="right" depart="3239" />
    <vehicle id="UP_420" type="car" route="down" depart="3242" color="1,0,0"/>
    <vehicle id="left_421" type="car" route="left" depart="3257" />