<routes>
        <vType id="car" accel="0.8" decel="4.5" sigma="0.5" length="5" minGap="2.5" maxSpeed="16.67" guiShape="passenger"/>
        <route id="right" edges="51o 1i 2o 52i" />
        <route id="left" edges="52o 2i 1o 51i" />
        <route id="down" edges="54o 4i 3o 53i" />
        <route id="up" edges="53o 3i 4o 54i" />
    <vehicle id="down_0" type="car" route="up" depart="3" color="1,0,0"/>
    <vehicle id="left_1" type="car" route="left" depart="15" />
    <vehicle id="right_2" type="car" route="right" depart="27" />
    <vehicle id="left_3" type="car" route="left" depart="36" />
    <vehicle id="right_4" type="car" route="right" depart="45" />
    <vehicle id="left_5" type="car" route="left" depart="46" />
    <vehicle id="down_6" type="car" route="up" depart="55" color="1,0,0"/>
    <vehicle id="right_7" type="car" route="right" depart="69" />
    <vehicle id="left_8" type="car" route="left" depart="74" />
    <vehicle id="right_9" type="car" route="right" depart="97" />
    <vehicle id="left_10" type="car" route="left" depart="99" />
    <vehicle id="UP_11" type="car" route="down" depart="105" color="1,0,0"/>
    <vehicle id="left_12" type="car" route="left" depart="107" />
    <vehicle id="right_13" type="car" route="right" depart="112" />
    <vehicle id="down_14" type="car" route="up" depart="118" color="1,0,0"/>
    <vehicle id="UP_15" type="car" route="down" depart="124" color="1,0,0"/>
    <vehicle id="right_16" type="car" route="right" depart="131" />
    <vehicle id="left_17" type="car" route="left" depart="151" />
    <vehicle id="right_18" type="car" route="right" depart="157" />
    <vehicle id="left_19" type="car" route="left" depart="164" />
    <vehicle id="left_20" type="car" route="left" depart="169" />
    <vehicle id="down_21" type="car" route="up" depart="170" color="1,0,0"/>
    <vehicle id="UP_22" type="car" route="down" depart="173" color="1,0,0"/>
    <vehicle id="right_23" type="car" route="right" depart="176" />
    <vehicle id="right_24" type="car" route="right" depart="177" />
    <vehicle id="right_25" type="car" route="right" depart="179" />
    <vehicle id="right_26" type="car" route="right" depart="203" />
    <vehicle id="right_27" type="car" route="right" depart="205" />
    <vehicle id="right_28" type="car" route="right" depart="212" />
    <vehicle id="left_29" type="car" route="left" depart="216" />
    <vehicle id="left_30" type="car" route="left" depart="227" />
    <vehicle id="UP_31" type="car" route="down" depart="229" color="1,0,0"/>
    <vehicle id="down_32" type="car" route="up" depart="233" color="1,0,0"/>
    <vehicle id="UP_33" type="car" route="down" depart="235" color="1,0,0"/>
    <vehicle id="right_34" type="car" route="right" depart="240" />
    <vehicle id="down_35" type="car" route="up" depart="249" color="1,0,0"/>
    <vehicle id="left_36" type="car" route="left" depart="263" />
    <vehicle id="right_37" type="car" route="right" depart="272" />
    <vehicle id="left_38" type="car" route="left" depart="273" />
    <vehicle id="left_39" type="car" route="left" depart="275" />
    <vehicle id="UP_40" type="car" route="down" depart="276" color="1,0,0"/>
    <vehicle id="left_41" type="car" route="left" depart="278" />
    <vehicle id="down_42" type="car" route="up" depart="278" color="1,0,0"/>
    <vehicle id="down_43" type="car" route="up" depart="283" color="1,0,0"/>
    <vehicle id="left_44" type="car" route="left" depart="297" />
    <vehicle id="right_45" type="car" route="right" depart="310" />
    <vehicle id="left_46" type="car" route="left" depart="327" />
    <vehicle id="left_47" type="car" route="left" depart="340" />
    <vehicle id="down_48" type="car" route="up" depart="340" color="1,0,0"/>
    <vehicle id="left_49" type="car" route="left" depart="344" />
    <vehicle id="right_50" type="car" route="right" depart="348" />
    <vehicle id="down_51" type="car" route="up" depart="362" color="1,0,0"/>
    <vehicle id="right_52" type="car" route="right" depart="368" />
    <vehicle id="down_53" type="car" route="up" depart="373" color="1,0,0"/>
    <vehicle id="left_54" type="car" route="left" depart="379" />
    <vehicle id="left_55" type="car" route="left" depart="380" />
    <vehicle id="right_56" type="car" route="right" depart="382" />
    <vehicle id="UP_57" type="car" route="down" depart="398" color="1,0,0"/>
    <vehicle id="right_58" type="car" route="right" depart="403" />
    <vehicle id="right_59" type="car" route="right" depart="413" />
    <vehicle id="left_60" type="car" route="left" depart="415" />
    <vehicle id="left_61" type="car" route="left" depart="432" />
    <vehicle id="down_62" type="car" route="up" depart="435" color="1,0,0"/>
    <vehicle id="right_63" type="car" route="right" depart="447" />
    <vehicle id="left_64" type="car" route="left" depart="447" />
    <vehicle id="left_65" type="car" route="left" depart="449" />
    <vehicle id="left_66" type="car" route="left" depart="451" />
    <vehicle id="UP_67" type="car" route="down" depart="458" color="1,0,0"/>
    <vehicle id="down_68" type="car" route="up" depart="462" color="1,0,0"/>
    <vehicle id="left_69" type="car" route="left" depart="469" />
    <vehicle id="right_70" type="car" route="right" depart="485" />
    <vehicle id="right_71" type="car" route="right" depart="497" />
    <vehicle id="right_72" type="car" route="right" depart="501" />
    <vehicle id="right_73" type="car" route="right" depart="504" />
    <vehicle id="left_74" type="car" route="left" depart="518" />
    <vehicle id="left_75" type="car" route="left" depart="524" />
    <vehicle id="UP_76" type="car" route="down" depart="530" color="1,0,0"/>
    <vehicle id="right_77" type="car" route="right" depart="546" />
    <vehicle id="right_78" type="car" route="right" depart="547" />
    <vehicle id="right_79" type="car" route="right" depart="565" />
    <vehicle id="right_80" type="car" route="right" depart="568" />
    <vehicle id="right_81" type="car" route="right" depart="572" />
    <vehicle id="left_82" type="car" route="left" depart="591" />
    <vehicle id="right_83" type="car" route="right" depart="596" />
    <vehicle id="right_84" type="car" route="right" depart="610" />
    <vehicle id="left_85" type="car" route="left" depart="621" />
    <vehicle id="left_86" type="car" route="left" depart="622" />
    <vehicle id="left_87" type="car" route="left" depart="657" />
    <vehicle id="right_88" type="car" route="right" depart="660" />
    <vehicle id="UP_89" type="car" route="down" depart="667" color="1,0,0"/>
    <vehicle id="left_90" type="car" route="left" depart="668" />
    <vehicle id="UP_91" type="car" route="down" depart="677" color="1,0,0"/>
    <vehicle id="right_92" type="car" route="right" depart="691" />
    <vehicle id="left_93" type="car" route="left" depart="692" />
    <vehicle id="left_94" type="car" route="left" depart="699" />
    <vehicle id="left_95" type="car" route="left" depart="713" />
    <vehicle id="left_96" type="car" route="left" depart="723" />
    <vehicle id="left_97" type="car" route="left" depart="724" />
    <vehicle id="left_98" type="car" route="left" depart="737" />
    <vehicle id="left_99" type="car" route="left" depart="746" />
    <vehicle id="left_100" type="car" route="left" depart="760" />
    <vehicle id="right_101" type="car" route="right" depart="770" />
    <vehicle id="right_102" type="car" route="right" depart="779" />
    <vehicle id="right_103" type="car" route="right" depart="780" />
    <vehicle id="UP_104" type="car" route="down" depart="791" color="1,0,0"/>
    <vehicle id="UP_105" type="car" route="down" depart="805" color="1,0,0"/>
    <vehicle id="left_106" type="car" route="left" depart="814" />
    <vehicle id="left_107" type="car" route="left" depart="853" />
    <vehicle id="right_108" type="car" route="right" depart="856" />
    <vehicle id="right_109" type="car" route="right" depart="880" />
    <vehicle id="left_110" type="car" route="left" depart="886" />
    <vehicle id="left_111" type="car" route="left" depart="896" />
    <vehicle id="left_112" type="car" route="left" depart="901" />
    <vehicle id="left_113" type="car" route="left" depart="907" />
    <vehicle id="left_114" type="car" route="left" depart="914" />
    <vehicle id="left_115" type="car" route="left" depart="922" />
    <vehicle id="left_116" type="car" route="left" depart="932" />
    <vehicle id="right_117" type="car" route="right" depart="953" />
    <vehicle id="left_118" type="car" route="left" depart="954" />
    <vehicle id="right_119" type="car" route="right" depart="964" />
    <vehicle id="UP_120" type="car" route="down" depart="965" color="1,0,0"/>
    <vehicle id="left_121" type="car" route="left" depart="975" />
    <vehicle id="left_122" type="car" route="left" depart="999" />
    <vehicle id="left_123" type="car" route="left" depart="1006" />
    <vehicle id="left_124" type="car" route="left" depart="1008" />
    <vehicle id="left_125" type="car" route="left" depart="1018" />
    <vehicle id="right_126" type="car" route="right" depart="1027" />
    <vehicle id="left_127" type="car" route="left" depart="1027" />
    <vehicle id="left_128" type="car" route="left" depart="1029" />
    <vehicle id="left_129" type="car" route="left" depart="1037" />
    <vehicle id="left_130" type="car" route="left" depart="1058" />
    <vehicle id="UP_131" type="car" route="down" depart="1058" color="1,0,0"/>
    <vehicle id="right_132" type="car" route="right" depart="1063" />
    <vehicle id="left_133" type="car" route="left" depart="1065" />
    <vehicle id="right_134" type="car" route="right" depart="1066" />
    <vehicle id="left_135" type="car" route="left" depart="1072" />
    <vehicle id="left_136" type="car" route="left" depart="1099" />
    <vehicle id="down_137" type="car" route="up" depart="1101" color="1,0,0"/>
    <vehicle id="right_138" type="car" route="right" depart="1107" />
    <vehicle id="left_139" type="car" route="left" depart="1112" />
    <vehicle id="right_140" type="car" route="right" depart="1113" />
    <vehicle id="right_141" type="car" route="right" depart="1138" />
    <vehicle id="right_142" type="car" route="right" depart="1139" />
    <vehicle id="left_143" type="car" route="left" depart="1142" />
    <vehicle id="right_144" type="car" route="right" depart="1166" />
    <vehicle id="right_145" type="car" route="right" depart="1169" />
    <vehicle id="left_146" type="car" route="left" depart="1175" />
    <vehicle id="right_147" type="car" route="right" depart="1197" />
    <vehicle id="right_148" type="car" route="right" depart="1201" />
    <vehicle id="left_149" type="car" route="left" depart="1201" />
    <vehicle id="UP_150" type="car" route="down" depart="1202" color="1,0,0"/>
    <vehicle id="right_151" type="car" route="right" depart="1207" />
    <vehicle id="left_152" type="car" route="left" depart="1209" />
    <vehicle id="left_153" type="car" route="left" depart="1210" />
    <vehicle id="left_154" type="car" route="left" depart="1214" />
    <vehicle id="right_155" type="car" route="right" depart="1224" />
    <vehicle id="right_156" type="car" route="right" depart="1231" />
    <vehicle id="right_157" type="car" route="right" depart="1234" />
    <vehicle id="down_158" type="car" route="up" depart="1234" color="1,0,0"/>
    <vehicle id="right_159" type="car" route="right" depart="1241" />
    <vehicle id="left_160" type="car" route="left" depart="1243" />
    <vehicle id="left_161" type="car" route="left" depart="1250" />
    <vehicle id="left_162" type="car" route="left" depart="1265" />
    <vehicle id="right_163" type="car" route="right" depart="1272" />
    <vehicle id="right_164" type="car" route="right" depart="1281" />
    <vehicle id="right_165" type="car" route="right" depart="1282" />
    <vehicle id="left_166" type="car" route="left" depart="1289" />
    <vehicle id="left_167" type="car" route="left" depart="1292" />
    <vehicle id="left_168" type="car" route="left" depart="1296" />
    <vehicle id="right_169" type="car" route="right" depart="1303" />
    <vehicle id="right_170" type="car" route="right" depart="1311" />
    <vehicle id="down_171" type="car" route="up" depart="1315" color="1,0,0"/>
    <vehicle id="left_172" type="car" route="left" depart="1320" />
    <vehicle id="left_173" type="car" route="left" depart="1331" />
    <vehicle id="left_174" type="car" route="left" depart="1336" />
    <vehicle id="right_175" type="car" route="right" depart="1345" />
    <vehicle id="left_176" type="car" route="left" depart="1348" />
    <vehicle id="right_177" type="car" route="right" depart="1368" />
    <vehicle id="left_178" type="car" route="left" depart="1374" />
    <vehicle id="left_179" type="car" route="left" depart="1375" />
    <vehicle id="right_180" type="car" route="right" depart="1378" />
    <vehicle id="left_181" type="car" route="left" depart="1378" />
    <vehicle id="left_182" type="car" route="left" depart="1402" />
    <vehicle id="UP_183" type="car" route="down" depart="1412" color="1,0,0"/>
    <vehicle id="left_184" type="car" route="left" depart="1416" />
    <vehicle id="right_185" type="car" route="right" depart="1421" />
    <vehicle id="right_186" type="car" route="right" depart="1424" />
    <vehicle id="down_187" type="car" route="up" depart="1425" color="1,0,0"/>
    <vehicle id="left_188" type="car" route="left" depart="1432" />
    <vehicle id="UP_189" type="car" route="down" depart="1438" color="1,0,0"/>
    <vehicle id="right_190" type="car" route="right" depart="1445" />
    <vehicle id="right_191" type="car" route="right" depart="1446" />
    <vehicle id="right_192" type="car" route="right" depart="1450" />
    <vehicle id="right_193" type="car" route="right" depart="1459" />
    <vehicle id="left_194" type="car" route="left" depart="1466" />
    <vehicle id="right_195" type="car" route="right" depart="1482" />
    <vehicle id="right_196" type="car" route="right" depart="1494" />
    <vehicle id="right_197" type="car" route="right" depart="1512" />
    <vehicle id="left_198" type="car" route="left" depart="1512" />
    <vehicle id="right_199" type="car" route="right" depart="1515" />
    <vehicle id="down_200" type="car" route="up" depart="1526" color="1,0,0"/>
    <vehicle id="left_201" type="car" route="left" depart="1546" />
    <vehicle id="left_202" type="car" route="left" depart="1549" />
    <vehicle id="right_203" type="car" route="right" depart="1570" />
    <vehicle id="left_204" type="car" route="left" depart="1601" />
    <vehicle id="right_205" type="car" route="right" depart="1623" />
    <vehicle id="down_206" type="car" route="up" depart="1633" color="1,0,0"/>
    <vehicle id="right_207" type="car" route="right" depart="1644" />
    <vehicle id="UP_208" type="car" route="down" depart="1651" color="1,0,0"/>
    <vehicle id="down_209" type="car" route="up" depart="1657" color="1,0,0"/>
    <vehicle id="left_210" type="car" route="left" depart="1659" />
    <vehicle id="left_211" type="car" route="left" depart="1664" />
    <vehicle id="left_212" type="car" route="left" depart="1669" />
    <vehicle id="UP_213" type="car" route="down" depart="1675" color="1,0,0"/>
    <vehicle id="left_214" type="car" route="left" depart="1681" />
    <vehicle id="right_215" type="car" route="right" depart="1697" />
    <vehicle id="right_216" type="car" route="right" depart="1705" />
    <vehicle id="left_217" type="car" route="left" depart="1706" />
    <vehicle id="down_218" type="car" route="up" depart="1707" color="1,0,0"/>
    <vehicle id="left_219" type="car" route="left" depart="1713" />
    <vehicle id="left_220" type="car" route="left" depart="1726" />
    <vehicle id="right_221" type="car" route="right" depart="1749" />
    <vehicle id="right_222" type="car" route="right" depart="1751" />
    <vehicle id="right_223" type="car" route="right" depart="1763" />
    <vehicle id="down_224" type="car" route="up" depart="1769" color="1,0,0"/>
    <vehicle id="right_225" type="car" route="right" depart="1773" />
    <vehicle id="left_226" type="car" route="left" depart="1779" />
    <vehicle id="left_227" type="car" route="left" depart="1785" />
    <vehicle id="down_228" type="car" route="up" depart="1795" color="1,0,0"/>
    <vehicle id="left_229" type="car" route="left" depart="1802" />
    <vehicle id="right_230" type="car" route="right" depart="1816" />
    <vehicle id="left_231" type="car" route="left" depart="1816" />
    <vehicle id="UP_232" type="car" route="down" depart="1817" color="1,0,0"/>
    <vehicle id="right_233" type="car" route="right" depart="1831" />
    <vehicle id="left_234" type="car" route="left" depart="1831" />
    <vehicle id="right_235" type="car" route="right" depart="1834" />
    <vehicle id="down_236" type="car" route="up" depart="1851" color="1,0,0"/>
    <vehicle id="left_237" type="car" route="left" depart="1853" />
    <vehicle id="right_238" type="car" route="right" depart="1854" />
    <vehicle id="left_239" type="car" route="left" depart="1871" />
    <vehicle id="UP_240" type="car" route="down" depart="1880" color="1,0,0"/>
    <vehicle id="left_241" type="car" route="left" depart="1881" />
    <vehicle id="right_242" type="car" route="right" depart="1909" />
    <vehicle id="left_243" type="car" route="left" depart="1912" />
    <vehicle id="down_244" type="car" route="up" depart="1915" color="1,0,0"/>
    <vehicle id="left_245" type="car" route="left" depart="1920" />
    <vehicle id="right_246" type="car" route="right" depart="1928" />
    <vehicle id="right_247" type="car" route="right" depart="1931" />
    <vehicle id="right_248" type="car" route="right" depart="1934" />
    <vehicle id="right_249" type="car" route="right" depart="1938" />
    <vehicle id="right_250" type="car" route="right" depart="1957" />
    <vehicle id="left_251" type="car" route="left" depart="1957" />
    <vehicle id="right_252" type="car" route="right" depart="1961" />
    <vehicle id="right_253" type="car" route="right" depart="1964" />
    <vehicle id="right_254" type="car" route="right" depart="1971" />
    <vehicle id="right_255" type="car" route="right" depart="1975" />
    <vehicle id="left_256" type="car" route="left" depart="1981" />
    <vehicle id="right_257" type="car" route="right" depart="1985" />
    <vehicle id="left_258" type="car" route="left" depart="1985" />
    <vehicle id="right_259" type="car" route="right" depart="2001" />
    <vehicle id="down_260" type="car" route="up" depart="2005" color="1,0,0"/>
    <vehicle id="right_261" type="car" route="right" depart="2021" />
    <vehicle id="left_262" type="car" route="left" depart="2022" />
    <vehicle id="left_263" type="car" route="left" depart="2029" />
    <vehicle id="right_264" type="car" route="right" depart="2032" />
    <vehicle id="left_265" type="car" route="left" depart="2049" />
    <vehicle id="down_266" type="car" route="up" depart="2052" color="1,0,0"/>
    <vehicle id="left_267" type="car" route="left" depart="2055" />
    <vehicle id="UP_268" type="car" route="down" depart="2067" color="1,0,0"/>
    <vehicle id="right_269" type="car" route="right" depart="2075" />
    <vehicle id="right_270" type="car" route="right" depart="2094" />
    <vehicle id="left_271" type="car" route="left" depart="2104" />
    <vehicle id="left_272" type="car" route="left" depart="2107" />
    <vehicle id="right_273" type="car" route="right" depart="2117" />
    <vehicle id="left_274" type="car" route="left" depart="2132" />
    <vehicle id="right_275" type="car" route="right" depart="2153" />
    <vehicle id="left_276" type="car" route="left" depart="2160" />
    <vehicle id="right_277" type="car" route="right" depart="2168" />
    <vehicle id="right_278" type="car" route="right" depart="2177" />
    <vehicle id="right_279" type="car" route="right" depart="2186" />
    <vehicle id="right_280" type="car" route="right" depart="2187" />
    <vehicle id="right_281" type="car" route="right" depart="2189" />
    <vehicle id="left_282" type="car" route="left" depart="2207" />
    <vehicle id="UP_283" type="car" route="down" depart="2207" color="1,0,0"/>
    <vehicle id="left_284" type="car" route="left" depart="2216" />
    <vehicle id="UP_285" type="car" route="down" depart="2218" color="1,0,0"/>
    <vehicle id="right_286" type="car" route="right" depart="2223" />
    <vehicle id="UP_287" type="car" route="down" depart="2230" color="1,0,0"/>
    <vehicle id="UP_288" type="car" route="down" depart="2231" color="1,0,0"/>
    <vehicle id="right_289" type="car" route="right" depart="2232" />
    <vehicle id="left_290" type="car" route="left" depart="2243" />
    <vehicle id="down_291" type="car" route="up" depart="2243" color="1,0,0"/>
    <vehicle id="left_292" type="car" route="left" depart="2245" />
    <vehicle id="right_293" type="car" route="right" depart="2260" />
    <vehicle id="right_294" type="car" route="right" depart="2272" />
    <vehicle id="left_295" type="car" route="left" depart="2273" />
    <vehicle id="left_296" type="car" route="left" depart="2286" />
    <vehicle id="right_297" type="car" route="right" depart="2312" />
    <vehicle id="right_298" type="car" route="right" depart="2319" />
    <vehicle id="right_299" type="car" route="right" depart="2339" />
    <vehicle id="right_300" type="car" route="right" depart="2341" />
    <vehicle id="left_301" type="car" route="left" depart="2341" />
    <vehicle id="right_302" type="car" route="right" depart="2349" />
    <vehicle id="UP_303" type="car" route="down" depart="2353" color="1,0,0"/>
    <vehicle id="down_304" type="car" route="up" depart="2356" color="1,0,0"/>
    <vehicle id="left_305" type="car" route="left" depart="2366" />
    <vehicle id="left_306" type="car" route="left" depart="2375" />
    <vehicle id="right_307" type="car" route="right" depart="2392" />
    <vehicle id="right_308" type="car" route="right" depart="2395" />
    <vehicle id="left_309" type="car" route="left" depart="2398" />
    <vehicle id="left_310" type="car" route="left" depart="2406" />
    <vehicle id="right_311" type="car" route="right" depart="2411" />
    <vehicle id="right_312" type="car" route="right" depart="2421" />
    <vehicle id="right_313" type="car" route="right" depart="2422" />
    <vehicle id="left_314" type="car" route="left" depart="2439" />
    <vehicle id="left_315" type="car" route="left" depart="2446" />
    <vehicle id="UP_316" type="car" route="down" depart="2451" color="1,0,0"/>
    <vehicle id="left_317" type="car" route="left" depart="2464" />
    <vehicle id="left_318" type="car" route="left" depart="2470" />
    <vehicle id="right_319" type="car" route="right" depart="2476" />
    <vehicle id="left_320" type="car" route="left" depart="2476" />
    <vehicle id="left_321" type="car" route="left" depart="2482" />
    <vehicle id="right_322" type="car" route="right" depart="2486" />
    <vehicle id="right_323" type="car" route="right" depart="2487" />
    <vehicle id="right_324" type="car" route="right" depart="2489" />
    <vehicle id="left_325" type="car" route="left" depart="2495" />
    <vehicle id="right_326" type="car" route="right" depart="2517" />
    <vehicle id="right_327" type="car" route="right" depart="2525" />
    <vehicle id="right_328" type="car" route="right" depart="2531" />
    <vehicle id="right_329" type="car" route="right" depart="2532" />
    <vehicle id="down_330" type="car" route="up" depart="2540" color="1,0,0"/>
    <vehicle id="left_331" type="car" route="left" depart="2543" />
    <vehicle id="right_332" type="car" route="right" depart="2568" />
    <vehicle id="right_333" type="car" route="right" depart="2569" />
    <vehicle id="right_334" type="car" route="right" depart="2587" />
    <vehicle id="right_335" type="car" route="right" depart="2590" />
    <vehicle id="left_336" type="car" route="left" depart="2625" />
    <vehicle id="UP_337" type="car" route="down" depart="2627" color="1,0,0"/>
    <vehicle id="left_338" type="car" route="left" depart="2633" />
    <vehicle id="right_339" type="car" route="right" depart="2637" />
    <vehicle id="left_340" type="car" route="left" depart="2645" />
    <vehicle id="right_341" type="car" route="right" depart="2650" />
    <vehicle id="left_342" type="car" route="left" depart="2654" />
    <vehicle id="UP_343" type="car" route="down" depart="2654" color="1,0,0"/>
    <vehicle id="left_344" type="car" route="left" depart="2657" />
    <vehicle id="right_345" type="car" route="right" depart="2662" />
    <vehicle id="left_346" type="car" route="left" depart="2665" />
    <vehicle id="right_347" type="car" route="right" depart="2674" />
    <vehicle id="down_348" type="car" route="up" depart="2676" color="1,0,0"/>
    <vehicle id="left_349" type="car" route="left" depart="2681" />
    <vehicle id="left_350" type="car" route="left" depart="2685" />
    <vehicle id="down_351" type="car" route="up" depart="2690" color="1,0,0"/>
    <vehicle id="left_352" type="car" route="left" depart="2699" />
    <vehicle id="left_353" type="car" route="left" depart="2709" />
    <vehicle id="down_354" type="car" route="up" depart="2716" color="1,0,0"/>
    <vehicle id="left_355" type="car" route="left" depart="2721" />
    <vehicle id="right_356" type="car" route="right" depart="2745" />
    <vehicle id="right_357" type="car" route="right" depart="2752" />
    <vehicle id="right_358" type="car" route="right" depart="2753" />
    <vehicle id="UP_359" type="car" route="down" depart="2753" color="1,0,0"/>
    <vehicle id="right_360" type="car" route="right" depart="2757" />
    <vehicle id="right_361" type="car" route="right" depart="2780" />
    <vehicle id="right_362" type="car" route="right" depart="2787" />
    <vehicle id="left_363" type="car" route="left" depart="2794" />
    <vehicle id="right_364" type="car" route="right" depart="2799" />
    <vehicle id="right_365" type="car" route="right" depart="2805" />
    <vehicle id="right_366" type="car" route="right" depart="2807" />
    <vehicle id="right_367" type="car" route="right" depart="2826" />
    <vehicle id="right_368" type="car" route="right" depart="2830" />
    <vehicle id="right_369" type="car" route="right" depart="2833" />
    <vehicle id="left_370" type="car" route="left" depart="2838" />
    <vehicle id="left_371" type="car" route="left" depart="2845" />
    <vehicle id="left_372" type="car" route="left" depart="2854" />
    <vehicle id="left_373" type="car" route="left" depart="2860" />
    <vehicle id="right_374" type="car" route="right" depart="2862" />
    <vehicle id="right_375" type="car" route="right" depart="2865" />
    <vehicle id="left_376" type="car" route="left" depart="2871" />
    <vehicle id="right_377" type="car" route="right" depart="2873" />
    <vehicle id="down_378" type="car" route="up" depart="2875" color="1,0,0"/>
    <vehicle id="right_379" type="car" route="right" depart="2880" />
    <vehicle id="down_380" type="car" route="up" depart="2881" color="1,0,0"/>
    <vehicle id="left_381" type="car" route="left" depart="2897" />
    <vehicle id="left_382" type="car" route="left" depart="2899" />
    <vehicle id="right_383" type="car" route="right" depart="2909" />
    <vehicle id="down_384" type="car" route="up" depart="2919" color="1,0,0"/>
    <vehicle id="left_385" type="car" route="left" depart="2930" />
    <vehicle id="left_386" type="car" route="left" depart="2965" />
    <vehicle id="left_387" type="car" route="left" depart="2972" />
    <vehicle id="right_388" type="car" route="right" depart="2975" />
    <vehicle id="right_389" type="car" route="right" depart="2980" />
    <vehicle id="right_390" type="car" route="right" depart="2986" />
    <vehicle id="left_391" type="car" route="left" depart="3017" />
    <vehicle id="UP_392" type="car" route="down" depart="3028" color="1,0,0"/>
    <vehicle id="right_393" type="car" route="right" depart="3030" />
    <vehicle id="down_394" type="car" route="up" depart="3045" color="1,0,0"/>
    <vehicle id="left_395" type="car" route="left" depart="3054" />
    <vehicle id="left_396" type="car" route="left" depart="3056" />
    <vehicle id="right_397" type="car" route="right" depart="3057" />
    <vehicle id="right_398" type="car" route="right" depart="3059" />
    <vehicle id="right_399" type="car" route="right" depart="3062" />
    <vehicle id="left_400" type="car" route="left" depart="3067" />
    <vehicle id="left_401" type="car" route="left" depart="3076" />
    <vehicle id="down_402" type="car" route="up" depart="3076" color="1,0,0"/>
    <vehicle id="right_403" type="car" route="right" depart="3079" />
    <vehicle id="right_404" type="car" route="right" depart="3081" />
    <vehicle id="down_405" type="car" route="up" depart="3126" color="1,0,0"/>
    <vehicle id="left_406" type="car" route="left" depart="3127" />
    <vehicle id="left_407" type="car" route="left" depart="3130" />
    <vehicle id="down_408" type="car" route="up" depart="3140" color="1,0,0"/>
    <vehicle id="right_409" type="car" route="right" depart="3148" />
    <vehicle id="left_410" type="car" route="left" depart="3153" />
    <vehicle id="right_411" type="car" route="right" depart="3157" />
    <vehicle id="left_412" type="car" route="left" depart="3165" />
    <vehicle id="left_413" type="car" route="left" depart="3177" />
    <vehicle id="right_414" type="car" route="right" depart="3178" />
    <vehicle id="down_415" type="car" route="up" depart="3194" color="1,0,0"/>
    <vehicle id="left_416" type="car" route="left" depart="3214" />
    <vehicle id="left_417" type="car" route="left" depart="3215" />
    <vehicle id="left_418" type="car" route="left" depart="3220" />
    <vehicle id="right_419" type="car" route="right" depart="3252" />
    <vehicle id="left_420" type="car" route="left" depart="3253" />
    <vehicle id="left_421" type="car" route="left" depart="3266" />