<routes>
        <vType id="car" accel="0.8" decel="4.5" sigma="0.5" length="5" minGap="2.5" maxSpeed="16.67" guiShape="passenger"/>
        <route id="right" edges="51o 1i 2o 52i" />
        <route id="left" edges="52o 2i 1o 51i" />
        <route id="down" edges="54o 4i 3o 53i" />
        <route id="up" edges="53o 3i 4o 54i" />
    <vehicle id="right_0" type="car" route="right" depart="5" />
    <vehicle id="right_1" type="car" route="right" depart="16" />
    <vehicle id="right_2" type="car" route="right" depart="18" />
    <vehicle id="right_3" type="car" route="right" depart="22" />
    <vehicle id="left_4" type="car" route="left" depart="29" />
    <vehicle id="down_5" type="car" route="up" depart="40" color="1,0,0"/>
    <vehicle id="right_6" type="car" route="right" depart="53" />
    <vehicle id="left_7" type="car" route="left" depart="55" />
    <vehicle id="left_8" type="car" route="left" depart="63" />
    <vehicle id="UP_9" type="car" route="down" depart="70" color="1,0,0"/>
    <vehicle id="left_10" type="car" route="left" depart="73" />
    <vehicle id="left_11" type="car" route="left" depart="85" />
    <vehicle id="down_12" type="car" route="up" depart="97" color="1,0,0"/>
    <vehicle id="right_13" type="car" route="right" depart="101" />
    <vehicle id="left_14" type="car" route="left" depart="108" />
    <vehicle id="right_15" type="car" route="right" depart="120" />
    <vehicle id="left_16" type="car" route="left" depart="126" />
    <vehicle id="left_17" type="car" route="left" depart="141" />
    <vehicle id="left_18" type="car" route="left" depart="150" />
    <vehicle id="right_19" type="car" route="right" depart="157" />
    <vehicle id="UP_20" type="car" route="down" depart="157" color="1,0,0"/>
    <vehicle id="left_21" type="car" route="left" depart="161" />
    <vehicle id="right_22" type="car" route="right" depart="162" />
    <vehicle id="left_23" type="car" route="left" depart="163" />
    <vehicle id="right_24" type="car" route="right" depart="174" />
    <vehicle id="right_25" type="car" route="right" depart="178" />
    <vehicle id="right_26" type="car" route="right" depart="183" />
    <vehicle id="down_27" type="car" route="up" depart="220" color="1,0,0"/>
    <vehicle id="down_28" type="car" route="up" depart="222" color="1,0,0"/>
    <vehicle id="right_29" type="car" route="right" depart="225" />
    <vehicle id="down_30" type="car" route="up" depart="228" color="1,0,0"/>
    <vehicle id="down_31" type="car" route="up" depart="232" color="1,0,0"/>
    <vehicle id="UP_32" type="car" route="down" depart="238" color="1,0,0"/>
    <vehicle id="right_33" type="car" route="right" depart="243" />
    <vehicle id="left_34" type="car" route="left" depart="246" />
    <vehicle id="right_35" type="car" route="right" depart="253" />
    <vehicle id="right_36" type="car" route="right" depart="256" />
    <vehicle id="left_37" type="car" route="left" depart="259" />
    <vehicle id="left_38" type="car" route="left" depart="273" />
    <vehicle id="right_39" type="car" route="right" depart="280" />
    <vehicle id="right_40" type="car" route="right" depart="282" />
    <vehicle id="left_41" type="car" route="left" depart="282" />
    <vehicle id="right_42" type="car" route="right" depart="305" />
    <vehicle id="right_43" type="car" route="right" depart="336" />
    <vehicle id="right_44" type="car" route="right" depart="338" />
    <vehicle id="right_45" type="car" route="right" depart="367" />
    <vehicle id="left_46" type="car" route="left" depart="378" />
    <vehicle id="right_47" type="car" route="right" depart="419" />
    <vehicle id="left_48" type="car" route="left" depart="428" />
    <vehicle id="left_49" type="car" route="left" depart="436" />
    <vehicle id="UP_50" type="car" route="down" depart="436" color="1,0,0"/>
    <vehicle id="right_51" type="car" route="right" depart="440" />
    <vehicle id="left_52" type="car" route="left" depart="448" />
    <vehicle id="right_53" type="car" route="right" depart="453" />
    <vehicle id="down_54" type="car" route="up" depart="453" color="1,0,0"/>
    <vehicle id="left_55" type="car" route="left" depart="458" />
    <vehicle id="down_56" type="car" route="up" depart="459" color="1,0,0"/>
    <vehicle id="down_57" type="car" route="up" depart="461" color="1,0,0"/>
    <vehicle id="right_58" type="car" route="right" depart="466" />
    <vehicle id="UP_59" type="car" route="down" depart="468" color="1,0,0"/>
    <vehicle id="left_60" type="car" route="left" depart="495" />
    <vehicle id="left_61" type="car" route="left" depart="509" />
    <vehicle id="right_62" type="car" route="right" depart="520" />
    <vehicle id="right_63" type="car" route="right" depart="522" />
    <vehicle id="left_64" type="car" route="left" depart="525" />
    <vehicle id="down_65" type="car" route="up" depart="525" color="1,0,0"/>
    <vehicle id="right_66" type="car" route="right" depart="529" />
    <vehicle id="left_67" type="car" route="left" depart="539" />
    <vehicle id="right_68" type="car" route="right" depart="544" />
    <vehicle id="left_69" type="car" route="left" depart="547" />
    <vehicle id="right_70" type="car" route="right" depart="551" />
    <vehicle id="right_71" type="car" route="right" depart="552" />
    <vehicle id="right_72" type="car" route="right" depart="553" />
    <vehicle id="left_73" type="car" route="left" depart="575" />
    <vehicle id="left_74" type="car" route="left" depart="577" />
    <vehicle id="left_75" type="car" route="left" depart="585" />
    <vehicle id="UP_76" type="car" route="down" depart="586" color="1,0,0"/>
    <vehicle id="down_77" type="car" route="up" depart="587" color="1,0,0"/>
    <vehicle id="right_78" type="car" route="right" depart="591" />
    <vehicle id="right_79" type="car" route="right" depart="599" />
    <vehicle id="right_80" type="car" route="right" depart="613" />
    <vehicle id="left_81" type="car" route="left" depart="613" />
    <vehicle id="right_82" type="car" route="right" depart="642" />
    <vehicle id="right_83" type="car" route="right" depart="643" />
    <vehicle id="left_84" type="car" route="left" depart="652" />
    <vehicle id="right_85" type="car" route="right" depart="659" />
    <vehicle id="right_86" type="car" route="right" depart="666" />
    <vehicle id="right_87" type="car" route="right" depart="672" />
    <vehicle id="left_88" type="car" route="left" depart="678" />
    <vehicle id="left_89" type="car" route="left" depart="689" />
    <vehicle id="left_90" type="car" route="left" depart="692" />
    <vehicle id="left_91" type="car" route="left" depart="701" />
    <vehicle id="down_92" type="car" route="up" depart="715" color="1,0,0"/>
    <vehicle id="down_93" type="car" route="up" depart="722" color="1,0,0"/>
    <vehicle id="left_94" type="car" route="left" depart="726" />
    <vehicle id="left_95" type="car" route="left" depart="729" />
    <vehicle id="right_96" type="car" route="right" depart="736" />
    <vehicle id="right_97" type="car" route="right" depart="742" />
    <vehicle id="right_98" type="car" route="right" depart="745" />
    <vehicle id="right_99" type="car" route="right" depart="746" />
    <vehicle id="right_100" type="car" route="right" depart="756" />
    <vehicle id="right_101" type="car" route="right" depart="758" />
    <vehicle id="down_102" type="car" route="up" depart="765" color="1,0,0"/>
    <vehicle id="left_103" type="car" route="left" depart="768" />
    <vehicle id="right_104" type="car" route="right" depart="778" />
    <vehicle id="UP_105" type="car" route="down" depart="778" color="1,0,0"/>
    <vehicle id="right_106" type="car" route="right" depart="784" />
    <vehicle id="left_107" type="car" route="left" depart="791" />
    <vehicle id="right_108" type="car" route="right" depart="804" />
    <vehicle id="right_109" type="car" route="right" depart="810" />
    <vehicle id="UP_110" type="car" route="down" depart="826" color="1,0,0"/>
    <vehicle id="left_111" type="car" route="left" depart="827" />
    <vehicle id="left_112" type="car" route="left" depart="832" />
    <vehicle id="UP_113" type="car" route="down" depart="843" color="1,0,0"/>
    <vehicle id="right_114" type="car" route="right" depart="844" />
    <vehicle id="left_115" type="car" route="left" depart="969" />
    <vehicle id="down_116" type="car" route="up" depart="969" color="1,0,0"/>
    <vehicle id="down_117" type="car" route="up" depart="974" color="1,0,0"/>
    <vehicle id="down_118" type="car" route="up" depart="980" color="1,0,0"/>
    <vehicle id="left_119" type="car" route="left" depart="986" />
    <vehicle id="left_120" type="car" route="left" depart="987" />
    <vehicle id="right_121" type="car" route="right" depart="989" />
    <vehicle id="left_122" type="car" route="left" depart="989" />
    <vehicle id="left_123" type="car" route="left" depart="1002" />
    <vehicle id="left_124" type="car" route="left" depart="1004" />
    <vehicle id="right_125" type="car" route="right" depart="1005" />
    <vehicle id="left_126" type="car" route="left" depart="1013" />
    <vehicle id="right_127" type="car" route="right" depart="1014" />
    <vehicle id="right_128" type="car" route="right" depart="1015" />
    <vehicle id="left_129" type="car" route="left" depart="1027" />
    <vehicle id="right_130" type="car" route="right" depart="1041" />
    <vehicle id="UP_131" type="car" route="down" depart="1046" color="1,0,0"/>
    <vehicle id="UP_132" type="car" route="down" depart="1056" color="1,0,0"/>
    <vehicle id="UP_133" type="car" route="down" depart="1057" color="1,0,0"/>
    <vehicle id="left_134" type="car" route="left" depart="1069" />
    <vehicle id="right_135" type="car" route="right" depart="1072" />
    <vehicle id="right_136" type="car" route="right" depart="1074" />
    <vehicle id="right_137" type="car" route="right" depart="1080" />
    <vehicle id="left_138" type="car" route="left" depart="1086" />
    <vehicle id="right_139" type="car" route="right" depart="1091" />
    <vehicle id="left_140" type="car" route="left" depart="1093" />
    <vehicle id="left_141" type="car" route="left" depart="1106" />
    <vehicle id="left_142" type="car" route="left" depart="1126" />
    <vehicle id="left_143" type="car" route="left" depart="1135" />
    <vehicle id="left_144" type="car" route="left" depart="1140" />
    <vehicle id="right_145" type="car" route="right" depart="1161" />
    <vehicle id="left_146" type="car" route="left" depart="1163" />
    <vehicle id="UP_147" type="car" route="down" depart="1173" color="1,0,0"/>
    <vehicle id="left_148" type="car" route="left" depart="1176" />
    <vehicle id="UP_149" type="car" route="down" depart="1178" color="1,0,0"/>
    <vehicle id="right_150" type="car" route="right" depart="1182" />
    <vehicle id="right_151" type="car" route="right" depart="1189" />
    <vehicle id="UP_152" type="car" route="down" depart="1196" color="1,0,0"/>
    <vehicle id="left_153" type="car" route="left" depart="1207" />
    <vehicle id="right_154" type="car" route="right" depart="1223" />
    <vehicle id="right_155" type="car" route="right" depart="1226" />
    <vehicle id="left_156" type="car" route="left" depart="1230" />
    <vehicle id="UP_157" type="car" route="down" depart="1238" color="1,0,0"/>
    <vehicle id="left_158" type="car" route="left" depart="1239" />
    <vehicle id="right_159" type="car" route="right" depart="1244" />
    <vehicle id="left_160" type="car" route="left" depart="1260" />
    <vehicle id="down_161" type="car" route="up" depart="1262" color="1,0,0"/>
    <vehicle id="right_162" type="car" route="right" depart="1278" />
    <vehicle id="left_163" type="car" route="left" depart="1286" />
    <vehicle id="right_164" type="car" route="right" depart="1315" />
    <vehicle id="right_165" type="car" route="right" depart="1317" />
    <vehicle id="left_166" type="car" route="left" depart="1326" />
    <vehicle id="right_167" type="car" route="right" depart="1334" />
    <vehicle id="left_168" type="car" route="left" depart="1341" />
    <vehicle id="UP_169" type="car" route="down" depart="1345" color="1,0,0"/>
    <vehicle id="down_170" type="car" route="up" depart="1348" color="1,0,0"/>
    <vehicle id="right_171" type="car" route="right" depart="1352" />
    <vehicle id="down_172" type="car" route="up" depart="1353" color="1,0,0"/>
    <vehicle id="left_173" type="car" route="left" depart="1361" />
    <vehicle id="right_174" type="car" route="right" depart="1385" />
    <vehicle id="left_175" type="car" route="left" depart="1399" />
    <vehicle id="left_176" type="car" route="left" depart="1401" />
    <vehicle id="right_177" type="car" route="right" depart="1403" />
    <vehicle id="left_178" type="car" route="left" depart="1408" />
    <vehicle id="UP_179" type="car" route="down" depart="1411" color="1,0,0"/>
    <vehicle id="right_180" type="car" route="right" depart="1422" />
    <vehicle id="left_181" type="car" route="left" depart="1460" />
    <vehicle id="left_182" type="car" route="left" depart="1475" />
    <vehicle id="right_183" type="car" route="right" depart="1480" />
    <vehicle id="left_184" type="car" route="left" depart="1484" />
    <vehicle id="right_185" type="car" route="right" depart="1486" />
    <vehicle id="left_186" type="car" route="left" depart="1523" />
    <vehicle id="right_187" type="car" route="right" depart="1536" />
    <vehicle id="left_188" type="car" route="left" depart="1537" />
    <vehicle id="UP_189" type="car" route="down" depart="1551" color="1,0,0"/>
    <vehicle id="left_190" type="car" route="left" depart="1561" />
    <vehicle id="down_191" type="car" route="up" depart="1563" color="1,0,0"/>
    <vehicle id="left_192" type="car" route="left" depart="1597" />
    <vehicle id="left_193" type="car" route="left" depart="1607" />
    <vehicle id="right_194" type="car" route="right" depart="1631" />
    <vehicle id="UP_195" type="car" route="down" depart="1643" color="1,0,0"/>
    <vehicle id="right_196" type="car" route="right" depart="1651" />
    <vehicle id="right_197" type="car" route="right" depart="1659" />
    <vehicle id="left_198" type="car" route="left" depart="1661" />
    <vehicle id="down_199" type="car" route="up" depart="1671" color="1,0,0"/>
    <vehicle id="left_200" type="car" route="left" depart="1672" />
    <vehicle id="left_201" type="car" route="left" depart="1673" />
    <vehicle id="right_202" type="car" route="right" depart="1681" />
    <vehicle id="left_203" type="car" route="left" depart="1685" />
    <vehicle id="right_204" type="car" route="right" depart="1693" />
    <vehicle id="down_205" type="car" route="up" depart="1711" color="1,0,0"/>
    <vehicle id="left_206" type="car" route="left" depart="1714" />
    <vehicle id="right_207" type="car" route="right" depart="1719" />
    <vehicle id="right_208" type="car" route="right" depart="1721" />
    <vehicle id="down_209" type="car" route="up" depart="1727" color="1,0,0"/>
    <vehicle id="right_210" type="car" route="right" depart="1730" />
    <vehicle id="right_211" type="car" route="right" depart="1734" />
    <vehicle id="down_212" type="car" route="up" depart="1741" color="1,0,0"/>
    <vehicle id="left_213" type="car" route="left" depart="1746" />
    <vehicle id="UP_214" type="car" route="down" depart="1755" color="1,0,0"/>
    <vehicle id="left_215" type="car" route="left" depart="1760" />
    <vehicle id="right_216" type="car" route="right" depart="1764" />
    <vehicle id="left_217" type="car" route="left" depart="1768" />
    <vehicle id="right_218" type="car" route="right" depart="1773" />
    <vehicle id="right_219" type="car" route="right" depart="1776" />
    <vehicle id="left_220" type="car" route="left" depart="1783" />
    <vehicle id="right_221" type="car" route="right" depart="1785" />
    <vehicle id="left_222" type="car" route="left" depart="1790" />
    <vehicle id="right_223" type="car" route="right" depart="1795" />
    <vehicle id="left_224" type="car" route="left" depart="1795" />
    <vehicle id="down_225" type="car" route="up" depart="1800" color="1,0,0"/>
    <vehicle id="left_226" type="car" route="left" depart="1801" />
    <vehicle id="right_227" type="car" route="right" depart="1807" />
    <vehicle id="left_228" type="car" route="left" depart="1814" />
    <vehicle id="down_229" type="car" route="up" depart="1834" color="1,0,0"/>
    <vehicle id="right_230" type="car" route="right" depart="1847" />
    <vehicle id="down_231" type="car" route="up" depart="1853" color="1,0,0"/>
    <vehicle id="left_232" type="car" route="left" depart="1854" />
    <vehicle id="left_233" type="car" route="left" depart="1856" />
    <vehicle id="left_234" type="car" route="left" depart="1872" />
    <vehicle id="right_235" type="car" route="right" depart="1882" />
    <vehicle id="left_236" type="car" route="left" depart="1890" />
    <vehicle id="down_237" type="car" route="up" depart="1892" color="1,0,0"/>
    <vehicle id="UP_238" type="car" route="down" depart="1905" color="1,0,0"/>
    <vehicle id="right_239" type="car" route="right" depart="1917" />
    <vehicle id="right_240" type="car" route="right" depart="1918" />
    <vehicle id="left_241" type="car" route="left" depart="1923" />
    <vehicle id="left_242" type="car" route="left" depart="1926" />
    <vehicle id="left_243" type="car" route="left" depart="1932" />
    <vehicle id="down_244" type="car" route="up" depart="1937" color="1,0,0"/>
    <vehicle id="left_245" type="car" route="left" depart="1939" />
    <vehicle id="down_246" type="car" route="up" depart="1939" color="1,0,0"/>
    <vehicle id="right_247" type="car" route="right" depart="1951" />
    <vehicle id="left_248" type="car" route="left" depart="1957" />
    <vehicle id="right_249" type="car" route="right" depart="1962" />
    <vehicle id="left_250" type="car" route="left" depart="1965" />
    <vehicle id="right_251" type="car" route="right" depart="1970" />
    <vehicle id="left_252" type="car" route="left" depart="1972" />
    <vehicle id="right_253" type="car" route="right" depart="1995" />
    <vehicle id="down_254" type="car" route="up" depart="1999" color="1,0,0"/>
    <vehicle id="right_255" type="car" route="right" depart="2022" />
    <vehicle id="left_256" type="car" route="left" depart="2025" />
    <vehicle id="right_257" type="car" route="right" depart="2030" />
    <vehicle id="UP_258" type="car" route="down" depart="2037" color="1,0,0"/>
    <vehicle id="right_259" type="car" route="right" depart="2038" />
    <vehicle id="right_260" type="car" route="right" depart="2039" />
    <vehicle id="left_261" type="car" route="left" depart="2046" />
    <vehicle id="left_262" type="car" route="left" depart="2047" />
    <vehicle id="left_263" type="car" route="left" depart="2053" />
    <vehicle id="left_264" type="car" route="left" depart="2068" />
    <vehicle id="right_265" type="car" route="right" depart="2070" />
    <vehicle id="right_266" type="car" route="right" depart="2075" />
    <vehicle id="right_267" type="car" route="right" depart="2081" />
    <vehicle id="right_268" type="car" route="right" depart="2086" />
    <vehicle id="right_269" type="car" route="right" depart="2087" />
    <vehicle id="right_270" type="car" route="right" depart="2091" />
    <vehicle id="right_271" type="car" route="right" depart="2092" />
    <vehicle id="UP_272" type="car" route="down" depart="2106" color="1,0,0"/>
    <vehicle id="left_273" type="car" route="left" depart="2108" />
    <vehicle id="UP_274" type="car" route="down" depart="2111" color="1,0,0"/>
    <vehicle id="left_275" type="car" route="left" depart="2115" />
    <vehicle id="right_276" type="car" route="right" depart="2118" />
    <vehicle id="left_277" type="car" route="left" depart="2123" />
    <vehicle id="right_278" type="car" route="right" depart="2126" />
    <vehicle id="left_279" type="car" route="left" depart="2129" />
    <vehicle id="left_280" type="car" route="left" depart="2133" />
    <vehicle id="right_281" type="car" route="right" depart="2142" />
    <vehicle id="left_282" type="car" route="left" depart="2147" />
    <vehicle id="right_283" type="car" route="right" depart="2155" />
    <vehicle id="down_284" type="car" route="up" depart="2162" color="1,0,0"/>
    <vehicle id="left_285" type="car" route="left" depart="2172" />
    <vehicle id="left_286" type="car" route="left" depart="2176" />
    <vehicle id="left_287" type="car" route="left" depart="2188" />
    <vehicle id="left_288" type="car" route="left" depart="2189" />
    <vehicle id="right_289" type="car" route="right" depart="2199" />
    <vehicle id="right_290" type="car" route="right" depart="2204" />
    <vehicle id="UP_291" type="car" route="down" depart="2210" color="1,0,0"/>
    <vehicle id="left_292" type="car" route="left" depart="2213" />
    <vehicle id="left_293" type="car" route="left" depart="2214" />
    <vehicle id="left_294" type="car" route="left" depart="2222" />
    <vehicle id="right_295" type="car" route="right" depart="2229" />
    <vehicle id="down_296" type="car" route="up" depart="2241" color="1,0,0"/>
    <vehicle id="down_297" type="car" route="up" depart="2248" color="1,0,0"/>
    <vehicle id="UP_298" type="car" route="down" depart="2255" color="1,0,0"/>
    <vehicle id="down_299" type="car" route="up" depart="2266" color="1,0,0"/>
    <vehicle id="UP_300" type="car" route="down" depart="2273" color="1,0,0"/>
    <vehicle id="right_301" type="car" route="right" depart="2274" />
    <vehicle id="left_302" type="car" route="left" depart="2279" />
    <vehicle id="left_303" type="car" route="left" depart="2284" />
    <vehicle id="right_304" type="car" route="right" depart="2287" />
    <vehicle id="right_305" type="car" route="right" depart="2294" />
    <vehicle id="left_306" type="car" route="left" depart="2299" />
    <vehicle id="left_307" type="car" route="left" depart="2303" />
    <vehicle id="left_308" type="car" route="left" depart="2306" />
    <vehicle id="right_309" type="car" route="right" depart="2312" />
    <vehicle id="left_310" type="car" route="left" depart="2318" />
    <vehicle id="left_311" type="car" route="left" depart="2325" />
    <vehicle id="left_312" type="car" route="left" depart="2327" />
    <vehicle id="UP_313" type="car" route="down" depart="2331" color="1,0,0"/>
    <vehicle id="left_314" type="car" route="left" depart="2342" />
    <vehicle id="UP_315" type="car" route="down" depart="2343" color="1,0,0"/>
    <vehicle id="right_316" type="car" route="right" depart="2349" />
    <vehicle id="UP_317" type="car" route="down" depart="2353" color="1,0,0"/>
    <vehicle id="right_318" type="car" route="right" depart="2357" />
    <vehicle id="right_319" type="car" route="right" depart="2371" />
    <vehicle id="left_320" type="car" route="left" depart="2372" />
    <vehicle id="left_321" type="car" route="left" depart="2381" />
    <vehicle id="right_322" type="car" route="right" depart="2401" />
    <vehicle id="right_323" type="car" route="right" depart="2414" />
    <vehicle id="left_324" type="car" route="left" depart="2421" />
    <vehicle id="left_325" type="car" route="left" depart="2440" />
    <vehicle id="left_326" type="car" route="left" depart="2443" />
    <vehicle id="right_327" type="car" route="right" depart="2445" />
    <vehicle id="left_328" type="car" route="left" depart="2446" />
    <vehicle id="UP_329" type="car" route="down" depart="2447" color="1,0,0"/>
    <vehicle id="UP_330" type="car" route="down" depart="2453" color="1,0,0"/>
    <vehicle id="down_331" type="car" route="up" depart="2454" color="1,0,0"/>
    <vehicle id="left_332" type="car" route="left" depart="2456" />
    <vehicle id="left_333" type="car" route="left" depart="2463" />
    <vehicle id="UP_334" type="car" route="down" depart="2465" color="1,0,0"/>
    <vehicle id="right_335" type="car" route="right" depart="2468" />
    <vehicle id="left_336" type="car" route="left" depart="2471" />
    <vehicle id="right_337" type="car" route="right" depart="2481" />
    <vehicle id="left_338" type="car" route="left" depart="2483" />
    <vehicle id="right_339" type="car" route="right" depart="2489" />
    <vehicle id="left_340" type="car" route="left" depart="2492" />
    <vehicle id="right_341" type="car" route="right" depart="2498" />
    <vehicle id="right_342" type="car" route="right" depart="2499" />
    <vehicle id="right_343" type="car" route="right" depart="2503" />
    <vehicle id="right_344" type="car" route="right" depart="2504" />
    <vehicle id="left_345" type="car" route="left" depart="2504" />
    <vehicle id="left_346" type="car" route="left" depart="2517" />
    <vehicle id="right_347" type="car" route="right" depart="2523" />
    <vehicle id="UP_348" type="car" route="down" depart="2529" color="1,0,0"/>
    <vehicle id="UP_349" type="car" route="down" depart="2534" color="1,0,0"/>
    <vehicle id="right_350" type="car" route="right" depart="2536" />
    <vehicle id="right_351" type="car" route="right" depart="2542" />
    <vehicle id="right_352" type="car" route="right" depart="2552" />
    <vehicle id="left_353" type="car" route="left" depart="2554" />
    <vehicle id="right_354" type="car" route="right" depart="2576" />
    <vehicle id="left_355" type="car" route="left" depart="2584" />
    <vehicle id="left_356" type="car" route="left" depart="2590" />
    <vehicle id="right_357" type="car" route="right" depart="2601" />
    <vehicle id="left_358" type="car" route="left" depart="2611" />
    <vehicle id="UP_359" type="car" route="down" depart="2613" color="1,0,0"/>
    <vehicle id="left_360" type="car" route="left" depart="2617" />
    <vehicle id="UP_361" type="car" route="down" depart="2622" color="1,0,0"/>
    <vehicle id="right_362" type="car" route="right" depart="2634" />
    <vehicle id="UP_363" type="car" route="down" depart="2634" color="1,0,0"/>
    <vehicle id="left_364" type="car" route="left" depart="2635" />
    <vehicle id="right_365" type="car" route="right" depart="2637" />
    <vehicle id="left_366" type="car" route="left" depart="2640" />
    <vehicle id="right_367" type="car" route="right" depart="2645" />
    <vehicle id="left_368" type="car" route="left" depart="2645" />
    <vehicle id="left_369" type="car" route="left" depart="2649" />
    <vehicle id="right_370" type="car" route="right" depart="2653" />
    <vehicle id="right_371" type="car" route="right" depart="2655" />
    <vehicle id="left_372" type="car" route="left" depart="2656" />
    <vehicle id="right_373" type="car" route="right" depart="2664" />
    <vehicle id="down_374" type="car" route="up" depart="2664" color="1,0,0"/>
    <vehicle id="right_375" type="car" route="right" depart="2670" />
    <vehicle id="left_376" type="car" route="left" depart="2670" />
    <vehicle id="down_377" type="car" route="up" depart="2673" color="1,0,0"/>
    <vehicle id="left_378" type="car" route="left" depart="2676" />
    <vehicle id="down_379" type="car" route="up" depart="2676" color="1,0,0"/>
    <vehicle id="left_380" type="car" route="left" depart="2678" />
    <vehicle id="right_381" type="car" route="right" depart="2687" />
    <vehicle id="right_382" type="car" route="right" depart="2689" />
    <vehicle id="right_383" type="car" route="right" depart="2692" />
    <vehicle id="left_384" type="car" route="left" depart="2694" />
    <vehicle id="left_385" type="car" route="left" depart="2696" />
    <vehicle id="left_386" type="car" route="left" depart="2704" />
    <vehicle id="down_387" type="car" route="up" depart="2705" color="1,0,0"/>
    <vehicle id="right_388" type="car" route="right" depart="2708" />
    <vehicle id="left_389" type="car" route="left" depart="2712" />
    <vehicle id="left_390" type="car" route="left" depart="2717" />
    <vehicle id="right_391" type="car" route="right" depart="2720" />
    <vehicle id="left_392" type="car" route="left" depart="2724" />
    <vehicle id="right_393" type="car" route="right" depart="2729" />
    <vehicle id="UP_394" type="car" route="down" depart="2729" color="1,0,0"/>
    <vehicle id="right_395" type="car" route="right" depart="2733" />
    <vehicle id="right_396" type="car" route="right" depart="2735" />
    <vehicle id="right_397" type="car" route="right" depart="2741" />
    <vehicle id="down_398" type="car" route="up" depart="2741" color="1,0,0"/>
    <vehicle id="right_399" type="car" route="right" depart="2749" />
    <vehicle id="left_400" type="car" route="left" depart="2752" />
    <vehicle id="right_401" type="car" route="right" depart="2753" />
    <vehicle id="right_402" type="car" route="right" depart="2758" />
    <vehicle id="right_403" type="car" route="right" depart="2762" />
    <vehicle id="left_404" type="car" route="left" depart="2765" />
    <vehicle id="left_405" type="car" route="left" depart="2768" />
    <vehicle id="down_406" type="car" route="up" depart="2781" color="1,0,0"/>
    <vehicle id="UP_407" type="car" route="down" depart="2781" color="1,0,0"/>
    <vehicle id="right_408" type="car" route="right" depart="2785" />
    <vehicle id="right_409" type="car" route="right" depart="2789" />
    <vehicle id="left_410" type="car" route="left" depart="2789" />
    <vehicle id="right_411" type="car" route="right" depart="2792" />
    <vehicle id="left_412" type="car" route="left" depart="2792" />
    <vehicle id="left_413" type="car" route="left" depart="2803" />
    <vehicle id="left_414" type="car" route="left" depart="2807" />
    <vehicle id="left_415" type="car" route="left" depart="2811" />
    <vehicle id="right_416" type="car" route="right" depart="2821" />
    <vehicle id="right_417" type="car" route="right" depart="2829" />
    <vehicle id="right_418" type="car" route="right" depart="2830" />
    <vehicle id="left_419" type="car" route="left" depart="2830" />
    <vehicle id="down_420" type="car" route="up" depart="2830" color="1,0,0"/>