<routes>
        <vType id="car" accel="0.8" decel="4.5" sigma="0.5" length="5" minGap="2.5" maxSpeed="16.67" guiShape="passenger"/>
        <route id="right" edges="51o 1i 2o 52i" />
        <route id="left" edges="52o 2i 1o 51i" />
        <route id="down" edges="54o 4i 3o 53i" />
        <route id="up" edges="53o 3i 4o 54i" />
    <vehicle id="right_0" type="car" route="right" depart="5" />
    <vehicle id="right_1" type="car" route="right" depart="8" />
    <vehicle id="right_2" type="car" route="right" depart="14" />
    <vehicle id="left_3" type="car" route="left" depart="20" />
    <vehicle id="UP_4" type="car" route="down" depart="22" color="1,0,0"/>
    <vehicle id="left_5" type="car" route="left" depart="26" />
    <vehicle id="right_6" type="car" route="right" depart="35" />
    <vehicle id="left_7" type="car" route="left" depart="62" />
    <vehicle id="UP_8" type="car" route="down" depart="73" color="1,0,0"/>
    <vehicle id="right_9" type="car" route="right" depart="80" />
    <vehicle id="left_10" type="car" route="left" depart="83" />
    <vehicle id="right_11" type="car" route="right" depart="104" />
    <vehicle id="UP_12" type="car" route="down" depart="108" color="1,0,0"/>
    <vehicle id="right_13" type="car" route="right" depart="114" />
    <vehicle id="right_14" type="car" route="right" depart="116" />
    <vehicle id="left_15" type="car" route="left" depart="132" />
    <vehicle id="left_16" type="car" route="left" depart="133" />
    <vehicle id="down_17" type="car" route="up" depart="138" color="1,0,0"/>
    <vehicle id="left_18" type="car" route="left" depart="167" />
    <vehicle id="right_19" type="car" route="right" depart="175" />
    <vehicle id="right_20" type="car" route="right" depart="177" />
    <vehicle id="down_21" type="car" route="up" depart="179" color="1,0,0"/>
    <vehicle id="down_22" type="car" route="up" depart="192" color="1,0,0"/>
    <vehicle id="left_23" type="car" route="left" depart="198" />
    <vehicle id="left_24" type="car" route="left" depart="206" />
    <vehicle id="left_25" type="car" route="left" depart="217" />
    <vehicle id="UP_26" type="car" route="down" depart="225" color="1,0,0"/>
    <vehicle id="left_27" type="car" route="left" depart="240" />
    <vehicle id="left_28" type="car" route="left" depart="247" />
    <vehicle id="right_29" type="car" route="right" depart="278" />
    <vehicle id="down_30" type="car" route="up" depart="286" color="1,0,0"/>
    <vehicle id="UP_31" type="car" route="down" depart="292" color="1,0,0"/>
    <vehicle id="left_32" type="car" route="left" depart="299" />
    <vehicle id="right_33" type="car" route="right" depart="328" />
    <vehicle id="left_34" type="car" route="left" depart="331" />
    <vehicle id="left_35" type="car" route="left" depart="335" />
    <vehicle id="left_36" type="car" route="left" depart="336" />
    <vehicle id="right_37" type="car" route="right" depart="339" />
    <vehicle id="down_38" type="car" route="up" depart="356" color="1,0,0"/>
    <vehicle id="left_39" type="car" route="left" depart="359" />
    <vehicle id="right_40" type="car" route="right" depart="363" />
    <vehicle id="left_41" type="car" route="left" depart="365" />
    <vehicle id="down_42" type="car" route="up" depart="365" color="1,0,0"/>
    <vehicle id="left_43" type="car" route="left" depart="369" />
    <vehicle id="UP_44" type="car" route="down" depart="380" color="1,0,0"/>
    <vehicle id="left_45" type="car" route="left" depart="404" />
    <vehicle id="down_46" type="car" route="up" depart="420" color="1,0,0"/>
    <vehicle id="left_47" type="car" route="left" depart="433" />
    <vehicle id="right_48" type="car" route="right" depart="475" />
    <vehicle id="right_49" type="car" route="right" depart="486" />
    <vehicle id="down_50" type="car" route="up" depart="497" color="1,0,0"/>
    <vehicle id="right_51" type="car" route="right" depart="509" />
    <vehicle id="down_52" type="car" route="up" depart="509" color="1,0,0"/>
    <vehicle id="left_53" type="car" route="left" depart="513" />
    <vehicle id="right_54" type="car" route="right" depart="525" />
    <vehicle id="right_55" type="car" route="right" depart="526" />
    <vehicle id="right_56" type="car" route="right" depart="534" />
    <vehicle id="left_57" type="car" route="left" depart="544" />
    <vehicle id="left_58" type="car" route="left" depart="574" />
    <vehicle id="right_59" type="car" route="right" depart="580" />
    <vehicle id="down_60" type="car" route="up" depart="583" color="1,0,0"/>
    <vehicle id="left_61" type="car" route="left" depart="584" />
    <vehicle id="UP_62" type="car" route="down" depart="590" color="1,0,0"/>
    <vehicle id="left_63" type="car" route="left" depart="592" />
    <vehicle id="left_64" type="car" route="left" depart="614" />
    <vehicle id="left_65" type="car" route="left" depart="621" />
    <vehicle id="left_66" type="car" route="left" depart="633" />
    <vehicle id="left_67" type="car" route="left" depart="646" />
    <vehicle id="right_68" type="car" route="right" depart="669" />
    <vehicle id="right_69" type="car" route="right" depart="671" />
    <vehicle id="right_70" type="car" route="right" depart="675" />
    <vehicle id="left_71" type="car" route="left" depart="677" />
    <vehicle id="left_72" type="car" route="left" depart="679" />
    <vehicle id="right_73" type="car" route="right" depart="688" />
    <vehicle id="right_74" type="car" route="right" depart="703" />
    <vehicle id="right_75" type="car" route="right" depart="717" />
    <vehicle id="down_76" type="car" route="up" depart="728" color="1,0,0"/>
    <vehicle id="down_77" type="car" route="up" depart="729" color="1,0,0"/>
    <vehicle id="right_78" type="car" route="right" depart="734" />
    <vehicle id="left_79" type="car" route="left" depart="737" />
    <vehicle id="left_80" type="car" route="left" depart="743" />
    <vehicle id="right_81" type="car" route="right" depart="746" />
    <vehicle id="left_82" type="car" route="left" depart="764" />
    <vehicle id="right_83" type="car" route="right" depart="766" />
    <vehicle id="left_84" type="car" route="left" depart="768" />
    <vehicle id="right_85" type="car" route="right" depart="771" />
    <vehicle id="down_86" type="car" route="up" depart="772" color="1,0,0"/>
    <vehicle id="right_87" type="car" route="right" depart="777" />
    <vehicle id="left_88" type="car" route="left" depart="804" />
    <vehicle id="right_89" type="car" route="right" depart="806" />
    <vehicle id="left_90" type="car" route="left" depart="811" />
    <vehicle id="left_91" type="car" route="left" depart="816" />
    <vehicle id="down_92" type="car" route="up" depart="823" color="1,0,0"/>
    <vehicle id="down_93" type="car" route="up" depart="831" color="1,0,0"/>
    <vehicle id="right_94" type="car" route="right" depart="844" />
    <vehicle id="right_95" type="car" route="right" depart="858" />
    <vehicle id="left_96" type="car" route="left" depart="860" />
    <vehicle id="down_97" type="car" route="up" depart="861" color="1,0,0"/>
    <vehicle id="right_98" type="car" route="right" depart="877" />
    <vehicle id="UP_99" type="car" route="down" depart="905" color="1,0,0"/>
    <vehicle id="left_100" type="car" route="left" depart="906" />
    <vehicle id="left_101" type="car" route="left" depart="913" />
    <vehicle id="right_102" type="car" route="right" depart="914" />
    <vehicle id="left_103" type="car" route="left" depart="936" />
    <vehicle id="right_104" type="car" route="right" depart="937" />
    <vehicle id="down_105" type="car" route="up" depart="939" color="1,0,0"/>
    <vehicle id="left_106" type="car" route="left" depart="941" />
    <vehicle id="down_107" type="car" route="up" depart="945" color="1,0,0"/>
    <vehicle id="UP_108" type="car" route="down" depart="955" color="1,0,0"/>
    <vehicle id="right_109" type="car" route="right" depart="956" />
    <vehicle id="right_110" type="car" route="right" depart="961" />
    <vehicle id="UP_111" type="car" route="down" depart="976" color="1,0,0"/>
    <vehicle id="left_112" type="car" route="left" depart="980" />
    <vehicle id="left_113" type="car" route="left" depart="981" />
    <vehicle id="right_114" type="car" route="right" depart="990" />
    <vehicle id="right_115" type="car" route="right" depart="993" />
    <vehicle id="left_116" type="car" route="left" depart="1016" />
    <vehicle id="left_117" type="car" route="left" depart="1025" />
    <vehicle id="left_118" type="car" route="left" depart="1035" />
    <vehicle id="left_119" type="car" route="left" depart="1042" />
    <vehicle id="down_120" type="car" route="up" depart="1061" color="1,0,0"/>
    <vehicle id="left_121" type="car" route="left" depart="1066" />
    <vehicle id="right_122" type="car" route="right" depart="1071" />
    <vehicle id="left_123" type="car" route="left" depart="1071" />
    <vehicle id="UP_124" type="car" route="down" depart="1071" color="1,0,0"/>
    <vehicle id="right_125" type="car" route="right" depart="1084" />
    <vehicle id="left_126" type="car" route="left" depart="1084" />
    <vehicle id="right_127" type="car" route="right" depart="1092" />
    <vehicle id="right_128" type="car" route="right" depart="1100" />
    <vehicle id="down_129" type="car" route="up" depart="1103" color="1,0,0"/>
    <vehicle id="left_130" type="car" route="left" depart="1115" />
    <vehicle id="down_131" type="car" route="up" depart="1133" color="1,0,0"/>
    <vehicle id="right_132" type="car" route="right" depart="1143" />
    <vehicle id="UP_133" type="car" route="down" depart="1152" color="1,0,0"/>
    <vehicle id="left_134" type="car" route="left" depart="1167" />
    <vehicle id="UP_135" type="car" route="down" depart="1168" color="1,0,0"/>
    <vehicle id="right_136" type="car" route="right" depart="1223" />
    <vehicle id="left_137" type="car" route="left" depart="1223" />
    <vehicle id="left_138" type="car" route="left" depart="1226" />
    <vehicle id="right_139" type="car" route="right" depart="1235" />
    <vehicle id="left_140" type="car" route="left" depart="1243" />
    <vehicle id="left_141" type="car" route="left" depart="1265" />
    <vehicle id="UP_142" type="car" route="down" depart="1272" color="1,0,0"/>
    <vehicle id="left_143" type="car" route="left" depart="1278" />
    <vehicle id="left_144" type="car" route="left" depart="1283" />
    <vehicle id="left_145" type="car" route="left" depart="1310" />
    <vehicle id="left_146" type="car" route="left" depart="1312" />
    <vehicle id="right_147" type="car" route="right" depart="1313" />
    <vehicle id="down_148" type="car" route="up" depart="1317" color="1,0,0"/>
    <vehicle id="left_149" type="car" route="left" depart="1325" />
    <vehicle id="left_150" type="car" route="left" depart="1327" />
    <vehicle id="left_151" type="car" route="left" depart="1328" />
    <vehicle id="right_152" type="car" route="right" depart="1356" />
    <vehicle id="down_153" type="car" route="up" depart="1384" color="1,0,0"/>
    <vehicle id="down_154" type="car" route="up" depart="1388" color="1,0,0"/>
    <vehicle id="right_155" type="car" route="right" depart="1399" />
    <vehicle id="UP_156" type="car" route="down" depart="1399" color="1,0,0"/>
    <vehicle id="UP_157" type="car" route="down" depart="1401" color="1,0,0"/>
    <vehicle id="UP_158" type="car" route="down" depart="1405" color="1,0,0"/>
    <vehicle id="right_159" type="car" route="right" depart="1425" />
    <vehicle id="left_160" type="car" route="left" depart="1426" />
    <vehicle id="right_161" type="car" route="right" depart="1428" />
    <vehicle id="left_162" type="car" route="left" depart="1454" />
    <vehicle id="left_163" type="car" route="left" depart="1460" />
    <vehicle id="right_164" type="car" route="right" depart="1467" />
    <vehicle id="down_165" type="car" route="up" depart="1477" color="1,0,0"/>
    <vehicle id="right_166" type="car" route="right" depart="1487" />
    <vehicle id="left_167" type="car" route="left" depart="1527" />
    <vehicle id="down_168" type="car" route="up" depart="1529" color="1,0,0"/>
    <vehicle id="down_169" type="car" route="up" depart="1544" color="1,0,0"/>
    <vehicle id="UP_170" type="car" route="down" depart="1560" color="1,0,0"/>
    <vehicle id="right_171" type="car" route="right" depart="1571" />
    <vehicle id="left_172" type="car" route="left" depart="1572" />
    <vehicle id="right_173" type="car" route="right" depart="1579" />
    <vehicle id="left_174" type="car" route="left" depart="1589" />
    <vehicle id="left_175" type="car" route="left" depart="1591" />
    <vehicle id="right_176" type="car" route="right" depart="1593" />
    <vehicle id="left_177" type="car" route="left" depart="1595" />
    <vehicle id="down_178" type="car" route="up" depart="1596" color="1,0,0"/>
    <vehicle id="UP_179" type="car" route="down" depart="1617" color="1,0,0"/>
    <vehicle id="right_180" type="car" route="right" depart="1622" />
    <vehicle id="right_181" type="car" route="right" depart="1625" />
    <vehicle id="left_182" type="car" route="left" depart="1626" />
    <vehicle id="right_183" type="car" route="right" depart="1629" />
    <vehicle id="right_184" type="car" route="right" depart="1631" />
    <vehicle id="right_185" type="car" route="right" depart="1632" />
    <vehicle id="UP_186" type="car" route="down" depart="1636" color="1,0,0"/>
    <vehicle id="UP_187" type="car" route="down" depart="1638" color="1,0,0"/>
    <vehicle id="right_188" type="car" route="right" depart="1655" />
    <vehicle id="left_189" type="car" route="left" depart="1656" />
    <vehicle id="right_190" type="car" route="right" depart="1662" />
    <vehicle id="right_191" type="car" route="right" depart="1664" />
    <vehicle id="right_192" type="car" route="right" depart="1669" />
    <vehicle id="left_193" type="car" route="left" depart="1669" />
    <vehicle id="left_194" type="car" route="left" depart="1675" />
    <vehicle id="down_195" type="car" route="up" depart="1679" color="1,0,0"/>
    <vehicle id="right_196" type="car" route="right" depart="1705" />
    <vehicle id="right_197" type="car" route="right" depart="1714" />
    <vehicle id="left_198" type="car" route="left" depart="1720" />
    <vehicle id="down_199" type="car" route="up" depart="1721" color="1,0,0"/>
    <vehicle id="left_200" type="car" route="left" depart="1723" />
    <vehicle id="left_201" type="car" route="left" depart="1737" />
    <vehicle id="left_202" type="car" route="left" depart="1744" />
    <vehicle id="right_203" type="car" route="right" depart="1758" />
    <vehicle id="right_204" type="car" route="right" depart="1760" />
    <vehicle id="right_205" type="car" route="right" depart="1767" />
    <vehicle id="right_206" type="car" route="right" depart="1769" />
    <vehicle id="left_207" type="car" route="left" depart="1770" />
    <vehicle id="UP_208" type="car" route="down" depart="1775" color="1,0,0"/>
    <vehicle id="right_209" type="car" route="right" depart="1786" />
    <vehicle id="left_210" type="car" route="left" depart="1793" />
    <vehicle id="down_211" type="car" route="up" depart="1801" color="1,0,0"/>
    <vehicle id="right_212" type="car" route="right" depart="1802" />
    <vehicle id="down_213" type="car" route="up" depart="1806" color="1,0,0"/>
    <vehicle id="right_214" type="car" route="right" depart="1824" />
    <vehicle id="left_215" type="car" route="left" depart="1832" />
    <vehicle id="left_216" type="car" route="left" depart="1843" />
    <vehicle id="right_217" type="car" route="right" depart="1851" />
    <vehicle id="left_218" type="car" route="left" depart="1854" />
    <vehicle id="left_219" type="car" route="left" depart="1859" />
    <vehicle id="UP_220" type="car" route="down" depart="1869" color="1,0,0"/>
    <vehicle id="left_221" type="car" route="left" depart="1873" />
    <vehicle id="left_222" type="car" route="left" depart="1882" />
    <vehicle id="right_223" type="car" route="right" depart="1884" />
    <vehicle id="left_224" type="car" route="left" depart="1891" />
    <vehicle id="right_225" type="car" route="right" depart="1901" />
    <vehicle id="right_226" type="car" route="right" depart="1927" />
    <vehicle id="left_227" type="car" route="left" depart="1947" />
    <vehicle id="right_228" type="car" route="right" depart="1951" />
    <vehicle id="right_229" type="car" route="right" depart="1953" />
    <vehicle id="right_230" type="car" route="right" depart="1962" />
    <vehicle id="UP_231" type="car" route="down" depart="1963" color="1,0,0"/>
    <vehicle id="right_232" type="car" route="right" depart="1974" />
    <vehicle id="left_233" type="car" route="left" depart="1990" />
    <vehicle id="left_234" type="car" route="left" depart="1994" />
    <vehicle id="left_235" type="car" route="left" depart="2007" />
    <vehicle id="UP_236" type="car" route="down" depart="2010" color="1,0,0"/>
    <vehicle id="right_237" type="car" route="right" depart="2011" />
    <vehicle id="right_238" type="car" route="right" depart="2013" />
    <vehicle id="right_239" type="car" route="right" depart="2014" />
    <vehicle id="UP_240" type="car" route="down" depart="2017" color="1,0,0"/>
    <vehicle id="UP_241" type="car" route="down" depart="2026" color="1,0,0"/>
    <vehicle id="left_242" type="car" route="left" depart="2039" />
    <vehicle id="right_243" type="car" route="right" depart="2052" />
    <vehicle id="right_244" type="car" route="right" depart="2053" />
    <vehicle id="down_245" type="car" route="up" depart="2054" color="1,0,0"/>
    <vehicle id="left_246" type="car" route="left" depart="2067" />
    <vehicle id="right_247" type="car" route="right" depart="2072" />
    <vehicle id="right_248" type="car" route="right" depart="2079" />
    <vehicle id="right_249" type="car" route="right" depart="2090" />
    <vehicle id="UP_250" type="car" route="down" depart="2092" color="1,0,0"/>
    <vehicle id="left_251" type="car" route="left" depart="2104" />
    <vehicle id="down_252" type="car" route="up" depart="2104" color="1,0,0"/>
    <vehicle id="right_253" type="car" route="right" depart="2105" />
    <vehicle id="right_254" type="car" route="right" depart="2110" />
    <vehicle id="left_255" type="car" route="left" depart="2131" />
    <vehicle id="right_256" type="car" route="right" depart="2138" />
    <vehicle id="UP_257" type="car" route="down" depart="2164" color="1,0,0"/>
    <vehicle id="left_258" type="car" route="left" depart="2185" />
    <vehicle id="right_259" type="car" route="right" depart="2189" />
    <vehicle id="left_260" type="car" route="left" depart="2191" />
    <vehicle id="left_261" type="car" route="left" depart="2193" />
    <vehicle id="UP_262" type="car" route="down" depart="2197" color="1,0,0"/>
    <vehicle id="right_263" type="car" route="right" depart="2205" />
    <vehicle id="left_264" type="car" route="left" depart="2215" />
    <vehicle id="right_265" type="car" route="right" depart="2216" />
    <vehicle id="UP_266" type="car" route="down" depart="2223" color="1,0,0"/>
    <vehicle id="left_267" type="car" route="left" depart="2228" />
    <vehicle id="left_268" type="car" route="left" depart="2230" />
    <vehicle id="right_269" type="car" route="right" depart="2245" />
    <vehicle id="right_270" type="car" route="right" depart="2254" />
    <vehicle id="right_271" type="car" route="right" depart="2255" />
    <vehicle id="left_272" type="car" route="left" depart="2261" />
    <vehicle id="left_273" type="car" route="left" depart="2267" />
    <vehicle id="right_274" type="car" route="right" depart="2268" />
    <vehicle id="left_275" type="car" route="left" depart="2272" />
    <vehicle id="right_276" type="car" route="right" depart="2284" />
    <vehicle id="right_277" type="car" route="right" depart="2298" />
    <vehicle id="UP_278" type="car" route="down" depart="2301" color="1,0,0"/>
    <vehicle id="UP_279" type="car" route="down" depart="2317" color="1,0,0"/>
    <vehicle id="UP_280" type="car" route="down" depart="2325" color="1,0,0"/>
    <vehicle id="left_281" type="car" route="left" depart="2328" />
    <vehicle id="right_282" type="car" route="right" depart="2346" />
    <vehicle id="left_283" type="car" route="left" depart="2348" />
    <vehicle id="right_284" type="car" route="right" depart="2357" />
    <vehicle id="right_285" type="car" route="right" depart="2358" />
    <vehicle id="UP_286" type="car" route="down" depart="2359" color="1,0,0"/>
    <vehicle id="left_287" type="car" route="left" depart="2360" />
    <vehicle id="right_288" type="car" route="right" depart="2369" />
    <vehicle id="left_289" type="car" route="left" depart="2371" />
    <vehicle id="left_290" type="car" route="left" depart="2373" />
    <vehicle id="UP_291" type="car" route="down" depart="2376" color="1,0,0"/>
    <vehicle id="left_292" type="car" route="left" depart="2384" />
    <vehicle id="left_293" type="car" route="left" depart="2385" />
    <vehicle id="down_294" type="car" route="up" depart="2386" color="1,0,0"/>
    <vehicle id="UP_295" type="car" route="down" depart="2386" color="1,0,0"/>
    <vehicle id="right_296" type="car" route="right" depart="2394" />
    <vehicle id="left_297" type="car" route="left" depart="2395" />
    <vehicle id="left_298" type="car" route="left" depart="2405" />
    <vehicle id="left_299" type="car" route="left" depart="2407" />
    <vehicle id="right_300" type="car" route="right" depart="2408" />
    <vehicle id="right_301" type="car" route="right" depart="2413" />
    <vehicle id="right_302" type="car" route="right" depart="2414" />
    <vehicle id="down_303" type="car" route="up" depart="2440" color="1,0,0"/>
    <vehicle id="right_304" type="car" route="right" depart="2444" />
    <vehicle id="down_305" type="car" route="up" depart="2447" color="1,0,0"/>
    <vehicle id="left_306" type="car" route="left" depart="2453" />
    <vehicle id="right_307" type="car" route="right" depart="2458" />
    <vehicle id="left_308" type="car" route="left" depart="2461" />
    <vehicle id="left_309" type="car" route="left" depart="2483" />
    <vehicle id="right_310" type="car" route="right" depart="2486" />
    <vehicle id="right_311" type="car" route="right" depart="2496" />
    <vehicle id="left_312" type="car" route="left" depart="2501" />
    <vehicle id="right_313" type="car" route="right" depart="2515" />
    <vehicle id="right_314" type="car" route="right" depart="2521" />
    <vehicle id="left_315" type="car" route="left" depart="2521" />
    <vehicle id="right_316" type="car" route="right" depart="2529" />
    <vehicle id="left_317" type="car" route="left" depart="2531" />
    <vehicle id="UP_318" type="car" route="down" depart="2545" color="1,0,0"/>
    <vehicle id="right_319" type="car" route="right" depart="2552" />
    <vehicle id="UP_320" type="car" route="down" depart="2559" color="1,0,0"/>
    <vehicle id="down_321" type="car" route="up" depart="2564" color="1,0,0"/>
    <vehicle id="left_322" type="car" route="left" depart="2569" />
    <vehicle id="right_323" type="car" route="right" depart="2574" />
    <vehicle id="down_324" type="car" route="up" depart="2591" color="1,0,0"/>
    <vehicle id="left_325" type="car" route="left" depart="2592" />
    <vehicle id="right_326" type="car" route="right" depart="2601" />
    <vehicle id="left_327" type="car" route="left" depart="2615" />
    <vehicle id="right_328" type="car" route="right" depart="2623" />
    <vehicle id="left_329" type="car" route="left" depart="2629" />
    <vehicle id="right_330" type="car" route="right" depart="2654" />
    <vehicle id="right_331" type="car" route="right" depart="2663" />
    <vehicle id="left_332" type="car" route="left" depart="2673" />
    <vehicle id="UP_333" type="car" route="down" depart="2680" color="1,0,0"/>
    <vehicle id="right_334" type="car" route="right" depart="2681" />
    <vehicle id="right_335" type="car" route="right" depart="2689" />
    <vehicle id="left_336" type="car" route="left" depart="2692" />
    <vehicle id="right_337" type="car" route="right" depart="2694" />
    <vehicle id="left_338" type="car" route="left" depart="2696" />
    <vehicle id="right_339" type="car" route="right" depart="2697" />
    <vehicle id="left_340" type="car" route="left" depart="2704" />
    <vehicle id="left_341" type="car" route="left" depart="2719" />
    <vehicle id="left_342" type="car" route="left" depart="2723" />
    <vehicle id="right_343" type="car" route="right" depart="2724" />
    <vehicle id="left_344" type="car" route="left" depart="2725" />
    <vehicle id="left_345" type="car" route="left" depart="2753" />
    <vehicle id="right_346" type="car" route="right" depart="2763" />
    <vehicle id="right_347" type="car" route="right" depart="2769" />
    <vehicle id="left_348" type="car" route="left" depart="2772" />
    <vehicle id="left_349" type="car" route="left" depart="2783" />
    <vehicle id="right_350" type="car" route="right" depart="2792" />
    <vehicle id="UP_351" type="car" route="down" depart="2799" color="1,0,0"/>
    <vehicle id="right_352" type="car" route="right" depart="2803" />
    <vehicle id="UP_353" type="car" route="down" depart="2829" color="1,0,0"/>
    <vehicle id="left_354" type="car" route="left" depart="2851" />
    <vehicle id="right_355" type="car" route="right" depart="2893" />
    <vehicle id="right_356" type="car" route="right" depart="2903" />
    <vehicle id="left_357" type="car" route="left" depart="2906" />
    <vehicle id="left_358" type="car" route="left" depart="2916" />
    <vehicle id="right_359" type="car" route="right" depart="2932" />
    <vehicle id="left_360" type="car" route="left" depart="2968" />
    <vehicle id="left_361" type="car" route="left" depart="2995" />
    <vehicle id="left_362" type="car" route="left" depart="2997" />
    <vehicle id="right_363" type="car" route="right" depart="2999" />
    <vehicle id="right_364" type="car" route="right" depart="3002" />
    <vehicle id="right_365" type="car" route="right" depart="3032" />
    <vehicle id="right_366" type="car" route="right" depart="3042" />
    <vehicle id="down_367" type="car" route="up" depart="3045" color="1,0,0"/>
    <vehicle id="UP_368" type="car" route="down" depart="3062" color="1,0,0"/>
    <vehicle id="left_369" type="car" route="left" depart="3068" />
    <vehicle id="right_370" type="car" route="right" depart="3069" />
    <vehicle id="left_371" type="car" route="left" depart="3090" />
    <vehicle id="left_372" type="car" route="left" depart="3094" />
    <vehicle id="UP_373" type="car" route="down" depart="3110" color="1,0,0"/>
    <vehicle id="right_374" type="car" route="right" depart="3114" />
    <vehicle id="down_375" type="car" route="up" depart="3143" color="1,0,0"/>
    <vehicle id="right_376" type="car" route="right" depart="3151" />
    <vehicle id="left_377" type="car" route="left" depart="3151" />
    <vehicle id="right_378" type="car" route="right" depart="3166" />
    <vehicle id="right_379" type="car" route="right" depart="3178" />
    <vehicle id="left_380" type="car" route="left" depart="3178" />
    <vehicle id="right_381" type="car" route="right" depart="3186" />
    <vehicle id="right_382" type="car" route="right" depart="3193" />
    <vehicle id="left_383" type="car" route="left" depart="3201" />
    <vehicle id="left_384" type="car" route="left" depart="3212" />
    <vehicle id="left_385" type="car" route="left" depart="3217" />
    <vehicle id="UP_386" type="car" route="down" depart="3235" color="1,0,0"/>
    <vehicle id="right_387" type="car" route="right" depart="3239" />
    <vehicle id="left_388" type="car" route="left" depart="3251" />
    <vehicle id="left_389" type="car" route="left" depart="3265" />
    <vehicle id="left_390" type="car" route="left" depart="3266" />
    <vehicle id="left_391" type="car" route="left" depart="3289" />
    <vehicle id="left_392" type="car" route="left" depart="3302" />
    <vehicle id="down_393" type="car" route="up" depart="3302" color="1,0,0"/>
    <vehicle id="right_394" type="car" route="right" depart="3308" />
    <vehicle id="UP_395" type="car" route="down" depart="3312" color="1,0,0"/>
    <vehicle id="UP_396" type="car" route="down" depart="3313" color="1,0,0"/>
    <vehicle id="left_397" type="car" route="left" depart="3329" />
    <vehicle id="UP_398" type="car" route="down" depart="3334" color="1,0,0"/>
    <vehicle id="left_399" type="car" route="left" depart="3340" />
    <vehicle id="left_400" type="car" route="left" depart="3351" />
    <vehicle id="left_401" type="car" route="left" depart="3355" />
    <vehicle id="right_402" type="car" route="right" depart="3360" />
    <vehicle id="UP_403" type="car" route="down" depart="3370" color="1,0,0"/>
    <vehicle id="right_404" type="car" route="right" depart="3382" />
    <vehicle id="UP_405" type="car" route="down" depart="3396" color="1,0,0"/>
    <vehicle id="UP_406" type="car" route="down" depart="3397" color="1,0,0"/>
    <vehicle id="right_407" type="car" route="right" depart="3403" />
    <vehicle id="left_408" type="car" route="left" depart="3413" />
    <vehicle id="right_409" type="car" route="right" depart="3427" />
    <vehicle id="left_410" type="car" route="left" depart="3436" />
    <vehicle id="right_411" type="car" route="right" depart="3441" />
    <vehicle id="left_412" type="car" route="left" depart="3447" />
    <vehicle id="right_413" type="car" route="right" depart="3455" />
    <vehicle id="left_414" type="car" route="left" depart="3457" />
    <vehicle id="right_415" type="car" route="right" depart="3462" />
    <vehicle id="left_416" type="car" route="left" depart="3463" />
    <vehicle id="UP_417" type="car" route="down" depart="3493" color="1,0,0"/>
    <vehicle id="left_418" type="car" route="left" depart="3500" />