<?xml version="1.0" encoding="UTF-8"?>

<!-- generated on 05/21/19 16:35:23 by Eclipse SUMO netconvert Version 1.2.0
<configuration xmlns:xsi="http://www.w3.org/2001/XMLSchema-instance" xsi:noNamespaceSchemaLocation="http://sumo.dlr.de/xsd/netconvertConfiguration.xsd">

    <input>
        <osm-files value="diagonal_b.osm"/>
    </input>

    <output>
        <output-file value="diagonal_b.net.xml"/>
    </output>

    <projection>
        <proj.utm value="true"/>
    </projection>

</configuration>
-->

<net version="1.1" junctionCornerDetail="5" limitTurnSpeed="5.50" xmlns:xsi="http://www.w3.org/2001/XMLSchema-instance" xsi:noNamespaceSchemaLocation="http://sumo.dlr.de/xsd/net_file.xsd">

    <location netOffset="-429355.76,-4582382.03" convBoundary="0.00,0.00,3045.97,2793.49" origBoundary="2.155017,41.389868,2.191136,41.415290" projParameter="+proj=utm +zone=31 +ellps=WGS84 +datum=WGS84 +units=m +no_defs"/>

    <type id="highway.bridleway" priority="1" numLanes="1" speed="2.78" allow="pedestrian" oneway="1" width="2.00"/>
    <type id="highway.bus_guideway" priority="1" numLanes="1" speed="27.78" allow="bus" oneway="1"/>
    <type id="highway.cycleway" priority="1" numLanes="1" speed="8.33" allow="bicycle" oneway="0" width="1.00"/>
    <type id="highway.footway" priority="1" numLanes="1" speed="2.78" allow="pedestrian" oneway="1" width="2.00"/>
    <type id="highway.ford" priority="1" numLanes="1" speed="2.78" allow="army" oneway="0"/>
    <type id="highway.living_street" priority="2" numLanes="1" speed="2.78" disallow="tram rail_urban rail rail_electric ship" oneway="0"/>
    <type id="highway.motorway" priority="14" numLanes="2" speed="39.44" allow="private emergency authority army vip passenger hov taxi bus coach delivery truck trailer motorcycle evehicle custom1 custom2" oneway="1"/>
    <type id="highway.motorway_link" priority="9" numLanes="1" speed="22.22" allow="private emergency authority army vip passenger hov taxi bus coach delivery truck trailer motorcycle evehicle custom1 custom2" oneway="1"/>
    <type id="highway.path" priority="1" numLanes="1" speed="2.78" allow="bicycle pedestrian" oneway="1" width="2.00"/>
    <type id="highway.pedestrian" priority="1" numLanes="1" speed="2.78" allow="pedestrian" oneway="1" width="2.00"/>
    <type id="highway.primary" priority="12" numLanes="2" speed="27.78" disallow="tram rail_urban rail rail_electric ship" oneway="0"/>
    <type id="highway.primary_link" priority="7" numLanes="1" speed="22.22" disallow="tram rail_urban rail rail_electric ship" oneway="0"/>
    <type id="highway.raceway" priority="15" numLanes="2" speed="83.33" allow="vip" oneway="0"/>
    <type id="highway.residential" priority="3" numLanes="1" speed="13.89" disallow="tram rail_urban rail rail_electric ship" oneway="0"/>
    <type id="highway.secondary" priority="11" numLanes="2" speed="27.78" disallow="tram rail_urban rail rail_electric ship" oneway="0"/>
    <type id="highway.secondary_link" priority="6" numLanes="1" speed="22.22" disallow="tram rail_urban rail rail_electric ship" oneway="0"/>
    <type id="highway.service" priority="1" numLanes="1" speed="5.56" allow="delivery bicycle pedestrian" oneway="0"/>
    <type id="highway.stairs" priority="1" numLanes="1" speed="1.39" allow="pedestrian" oneway="1" width="2.00"/>
    <type id="highway.step" priority="1" numLanes="1" speed="1.39" allow="pedestrian" oneway="1" width="2.00"/>
    <type id="highway.steps" priority="1" numLanes="1" speed="1.39" allow="pedestrian" oneway="1" width="2.00"/>
    <type id="highway.tertiary" priority="10" numLanes="1" speed="22.22" disallow="tram rail_urban rail rail_electric ship" oneway="0"/>
    <type id="highway.tertiary_link" priority="5" numLanes="1" speed="22.22" disallow="tram rail_urban rail rail_electric ship" oneway="0"/>
    <type id="highway.track" priority="1" numLanes="1" speed="5.56" disallow="tram rail_urban rail rail_electric ship" oneway="0"/>
    <type id="highway.trunk" priority="13" numLanes="2" speed="27.78" disallow="tram rail_urban rail rail_electric bicycle pedestrian ship" oneway="0"/>
    <type id="highway.trunk_link" priority="8" numLanes="1" speed="22.22" disallow="tram rail_urban rail rail_electric bicycle pedestrian ship" oneway="0"/>
    <type id="highway.unclassified" priority="4" numLanes="1" speed="13.89" disallow="tram rail_urban rail rail_electric ship" oneway="0"/>
    <type id="highway.unsurfaced" priority="1" numLanes="1" speed="8.33" disallow="tram rail_urban rail rail_electric ship" oneway="0"/>
    <type id="railway.light_rail" priority="19" numLanes="1" speed="27.78" allow="rail_urban" oneway="1"/>
    <type id="railway.preserved" priority="16" numLanes="1" speed="27.78" allow="rail" oneway="1"/>
    <type id="railway.rail" priority="20" numLanes="1" speed="83.33" allow="rail rail_electric" oneway="1"/>
    <type id="railway.subway" priority="18" numLanes="1" speed="27.78" allow="rail_urban" oneway="1"/>
    <type id="railway.tram" priority="17" numLanes="1" speed="13.89" allow="tram" oneway="1"/>

    <edge id=":1124790711_0" function="internal">
        <lane id=":1124790711_0_0" index="0" disallow="tram rail_urban rail rail_electric ship" speed="9.05" length="18.30" shape="970.33,952.20 965.60,948.29 961.37,946.35 957.64,946.38 954.42,948.36"/>
    </edge>
    <edge id=":1124790711_1" function="internal">
        <lane id=":1124790711_1_0" index="0" disallow="tram rail_urban rail rail_electric ship" speed="13.89" length="15.93" shape="970.33,952.20 967.87,949.64 965.37,947.26 962.14,945.09 957.47,943.19"/>
    </edge>
    <edge id=":1124790711_2" function="internal">
        <lane id=":1124790711_2_0" index="0" disallow="tram rail_urban rail rail_electric ship" speed="13.89" length="15.82" shape="972.59,947.81 957.47,943.19"/>
        <lane id=":1124790711_2_1" index="1" disallow="tram rail_urban rail rail_electric ship" speed="13.89" length="15.82" shape="973.52,944.75 958.38,940.12"/>
    </edge>
    <edge id=":1124790711_4" function="internal">
        <lane id=":1124790711_4_0" index="0" disallow="tram rail_urban rail rail_electric ship" speed="18.06" length="12.56" shape="962.94,939.15 960.80,941.75 958.85,943.91 956.81,945.99 954.42,948.36"/>
    </edge>
    <edge id=":1124790711_5" function="internal">
        <lane id=":1124790711_5_0" index="0" disallow="tram rail_urban rail rail_electric ship" speed="5.77" length="4.97" shape="962.94,939.15 962.09,939.93 961.04,940.36 959.81,940.42 958.38,940.12"/>
    </edge>
    <edge id=":1126848499_0" function="internal">
        <lane id=":1126848499_0_0" index="0" disallow="tram rail_urban rail rail_electric ship" speed="5.73" length="9.18" shape="992.88,905.18 991.26,907.37 991.00,909.22 992.10,910.73 994.57,911.90"/>
    </edge>
    <edge id=":1126848499_1" function="internal">
        <lane id=":1126848499_1_0" index="0" disallow="tram rail_urban rail rail_electric ship" speed="18.06" length="15.21" shape="990.59,902.95 987.40,906.61 985.32,909.67 983.65,912.44 981.70,915.25"/>
    </edge>
    <edge id=":1126848499_2" function="internal">
        <lane id=":1126848499_2_0" index="0" disallow="tram rail_urban rail rail_electric ship" speed="13.89" length="11.31" shape="983.79,908.48 994.57,911.90"/>
        <lane id=":1126848499_2_1" index="1" disallow="tram rail_urban rail rail_electric ship" speed="13.89" length="11.31" shape="982.82,911.53 993.60,914.95"/>
    </edge>
    <edge id=":1126848499_4" function="internal">
        <lane id=":1126848499_4_0" index="0" disallow="tram rail_urban rail rail_electric ship" speed="4.34" length="4.39" shape="982.82,911.53 983.29,911.93 983.26,912.69 982.73,913.79 981.70,915.25"/>
    </edge>
    <edge id=":1126848522_0" function="internal">
        <lane id=":1126848522_0_0" index="0" disallow="tram rail_urban rail rail_electric ship" speed="8.54" length="10.67" shape="1126.77,953.79 1129.83,954.46 1132.51,954.41 1134.81,953.65 1136.75,952.17"/>
    </edge>
    <edge id=":1126848522_1" function="internal">
        <lane id=":1126848522_1_0" index="0" disallow="tram rail_urban rail rail_electric ship" speed="13.89" length="11.87" shape="1126.77,953.79 1138.09,957.37"/>
        <lane id=":1126848522_1_1" index="1" disallow="tram rail_urban rail rail_electric ship" speed="13.89" length="11.87" shape="1125.80,956.84 1137.12,960.42"/>
    </edge>
    <edge id=":1126848522_3" function="internal">
        <lane id=":1126848522_3_0" index="0" disallow="tram rail_urban rail rail_electric ship" speed="22.22" length="12.44" shape="1128.02,961.04 1136.75,952.17"/>
    </edge>
    <edge id=":1126848522_4" function="internal">
        <lane id=":1126848522_4_0" index="0" disallow="tram rail_urban rail rail_electric ship" speed="8.29" length="9.54" shape="1128.02,961.04 1129.61,960.01 1131.65,959.57 1134.16,959.70 1137.12,960.42"/>
    </edge>
    <edge id=":1311619424_0" function="internal">
        <lane id=":1311619424_0_0" index="0" disallow="tram rail_urban rail rail_electric ship" speed="13.89" length="9.98" shape="979.03,930.15 969.48,927.24"/>
    </edge>
    <edge id=":1311619424_1" function="internal">
        <lane id=":1311619424_1_0" index="0" disallow="tram rail_urban rail rail_electric ship" speed="5.86" length="9.12" shape="977.78,920.26 976.46,922.56 976.38,924.46 977.54,925.97 979.95,927.08"/>
    </edge>
    <edge id=":1311619424_2" function="internal">
        <lane id=":1311619424_2_0" index="0" disallow="tram rail_urban rail rail_electric ship" speed="22.22" length="16.09" shape="977.78,920.26 967.85,932.92"/>
    </edge>
    <edge id=":1311619424_3" function="internal">
        <lane id=":1311619424_3_0" index="0" disallow="tram rail_urban rail rail_electric ship" speed="8.31" length="11.16" shape="977.78,920.26 975.01,923.58 972.71,925.86 970.86,927.08 969.48,927.24"/>
    </edge>
    <edge id=":1311619424_4" function="internal">
        <lane id=":1311619424_4_0" index="0" disallow="tram rail_urban rail rail_electric ship" speed="13.89" length="10.05" shape="970.34,924.16 979.95,927.08"/>
    </edge>
    <edge id=":1482414569_0" function="internal">
        <lane id=":1482414569_0_0" index="0" disallow="tram rail_urban rail rail_electric ship" speed="13.89" length="0.10" shape="1119.00,1098.13 1119.00,1098.13"/>
    </edge>
    <edge id=":1860476052_0" function="internal">
        <lane id=":1860476052_0_0" index="0" allow="bicycle" speed="8.33" length="0.30" width="1.00" shape="1516.71,1480.30 1516.49,1480.10"/>
    </edge>
    <edge id=":1860476052_1" function="internal">
        <lane id=":1860476052_1_0" index="0" allow="bicycle" speed="8.33" length="0.30" width="1.00" shape="1517.18,1479.37 1517.40,1479.58"/>
    </edge>
    <edge id=":1864143395_0" function="internal">
        <lane id=":1864143395_0_0" index="0" allow="bicycle" speed="8.33" length="0.30" width="1.00" shape="553.53,778.51 553.81,778.60"/>
    </edge>
    <edge id=":1864143448_0" function="internal">
        <lane id=":1864143448_0_0" index="0" allow="bicycle" speed="8.33" length="0.30" width="1.00" shape="835.84,869.64 836.12,869.73"/>
    </edge>
    <edge id=":1864143454_0" function="internal">
        <lane id=":1864143454_0_0" index="0" allow="bicycle" speed="3.56" length="2.61" width="1.00" shape="982.44,916.09 982.21,916.58 982.37,917.00 982.91,917.37 983.83,917.67"/>
    </edge>
    <edge id=":1864143454_1" function="internal">
        <lane id=":1864143454_1_0" index="0" disallow="tram rail_urban rail rail_electric ship" speed="22.22" length="4.42" shape="981.57,915.41 978.85,918.88"/>
    </edge>
    <edge id=":1864143454_2" function="internal">
        <lane id=":1864143454_2_0" index="0" allow="bicycle" speed="8.33" length="5.70" width="1.00" shape="978.34,916.13 979.95,916.67 981.06,916.99 982.18,917.27 983.83,917.67"/>
    </edge>
    <edge id=":1864143454_3" function="internal">
        <lane id=":1864143454_3_0" index="0" disallow="tram rail_urban rail rail_electric ship" speed="4.11" length="4.63" shape="978.34,916.13 979.63,916.75 980.29,917.53 980.31,918.47 979.72,919.56"/>
    </edge>
    <edge id=":1864143493_0" function="internal">
        <lane id=":1864143493_0_0" index="0" disallow="tram rail_urban rail rail_electric ship" speed="5.29" length="3.94" shape="1123.45,961.13 1124.50,961.35 1125.46,961.29 1126.33,960.98 1127.11,960.39"/>
    </edge>
    <edge id=":1864143493_1" function="internal">
        <lane id=":1864143493_1_0" index="0" allow="bicycle" speed="8.33" length="7.09" width="1.00" shape="1123.45,961.13 1130.17,963.36"/>
    </edge>
    <edge id=":1864143493_2" function="internal">
        <lane id=":1864143493_2_0" index="0" disallow="tram rail_urban rail rail_electric ship" speed="22.22" length="4.34" shape="1124.82,964.26 1127.88,961.18"/>
    </edge>
    <edge id=":1864143493_3" function="internal">
        <lane id=":1864143493_3_0" index="0" allow="bicycle" speed="6.08" length="5.13" width="1.00" shape="1125.61,965.02 1126.78,964.01 1127.93,963.40 1129.06,963.18 1130.17,963.36"/>
    </edge>
    <edge id=":1864143511_0" function="internal">
        <lane id=":1864143511_0_0" index="0" allow="bicycle" speed="8.33" length="0.29" width="1.00" shape="697.95,826.28 698.23,826.37"/>
    </edge>
    <edge id=":2508272960_0" function="internal">
        <lane id=":2508272960_0_0" index="0" disallow="tram rail_urban rail rail_electric ship" speed="13.89" length="0.30" shape="1542.54,345.74 1542.33,345.95"/>
        <lane id=":2508272960_0_1" index="1" disallow="tram rail_urban rail rail_electric ship" speed="13.89" length="0.30" shape="1540.26,343.50 1540.05,343.71"/>
    </edge>
    <edge id=":2508272964_0" function="internal">
        <lane id=":2508272964_0_0" index="0" allow="bicycle" speed="8.33" length="0.10" width="1.00" shape="1538.03,341.41 1538.05,341.39"/>
    </edge>
    <edge id=":2508272964_1" function="internal">
        <lane id=":2508272964_1_0" index="0" allow="bicycle" speed="8.33" length="0.10" width="1.00" shape="1537.29,340.74 1537.31,340.71"/>
    </edge>
    <edge id=":2530654119_0" function="internal">
        <lane id=":2530654119_0_0" index="0" allow="bicycle" speed="2.04" length="1.46" width="1.00" shape="1822.89,50.28 1823.33,50.20 1823.59,50.29 1823.68,50.55 1823.58,50.99"/>
    </edge>
    <edge id=":2530684913_0" function="internal">
        <lane id=":2530684913_0_0" index="0" allow="bicycle" speed="8.33" length="0.10" width="1.00" shape="1037.73,1013.51 1037.73,1013.51"/>
    </edge>
    <edge id=":2530684913_1" function="internal">
        <lane id=":2530684913_1_0" index="0" allow="bicycle" speed="8.33" length="0.10" width="1.00" shape="1038.43,1012.79 1038.43,1012.79"/>
    </edge>
    <edge id=":2530684915_0" function="internal">
        <lane id=":2530684915_0_0" index="0" allow="bicycle" speed="3.96" length="3.21" width="1.00" shape="979.70,951.13 978.79,950.99 978.14,951.20 977.73,951.75 977.56,952.65"/>
    </edge>
    <edge id=":2530684915_1" function="internal">
        <lane id=":2530684915_1_0" index="0" disallow="tram rail_urban rail rail_electric ship" speed="13.89" length="7.46" shape="980.02,950.08 972.88,947.90"/>
        <lane id=":2530684915_1_1" index="1" disallow="tram rail_urban rail rail_electric ship" speed="13.89" length="7.46" shape="980.95,947.02 973.81,944.84"/>
    </edge>
    <edge id=":2530684915_3" function="internal">
        <lane id=":2530684915_3_0" index="0" allow="bicycle" speed="6.68" length="5.91" width="1.00" shape="981.27,945.97 980.06,945.62 978.32,945.07 976.72,944.39 975.93,943.65"/>
    </edge>
    <edge id=":2530684915_4" function="internal">
        <lane id=":2530684915_4_0" index="0" allow="bicycle" speed="8.33" length="9.37" width="1.00" shape="976.89,943.35 977.42,946.07 977.65,947.97 977.67,949.87 977.56,952.65"/>
    </edge>
    <edge id=":2530684915_5" function="internal">
        <lane id=":2530684915_5_0" index="0" disallow="tram rail_urban rail rail_electric ship" speed="4.33" length="3.76" shape="976.89,943.35 976.97,944.94 976.44,945.90 975.40,946.18"/>
    </edge>
    <edge id=":2530684915_6" function="internal">
        <lane id=":2530684915_6_0" index="0" allow="bicycle" speed="2.04" length="0.73" width="1.00" shape="976.89,943.35 976.76,943.78 976.56,943.98"/>
    </edge>
    <edge id=":2530684915_10" function="internal">
        <lane id=":2530684915_10_0" index="0" disallow="tram rail_urban rail rail_electric ship" speed="4.33" length="1.94" shape="975.40,946.18 975.28,946.21 973.49,945.89"/>
    </edge>
    <edge id=":2530684915_11" function="internal">
        <lane id=":2530684915_11_0" index="0" allow="bicycle" speed="2.04" length="0.73" width="1.00" shape="976.56,943.98 976.28,943.94 975.93,943.65"/>
    </edge>
    <edge id=":2530684915_7" function="internal">
        <lane id=":2530684915_7_0" index="0" disallow="tram rail_urban rail rail_electric ship" speed="5.64" length="5.82" shape="976.56,952.61 976.35,951.48 975.61,950.49 974.34,949.65 972.56,948.96"/>
    </edge>
    <edge id=":2530684915_8" function="internal">
        <lane id=":2530684915_8_0" index="0" allow="bicycle" speed="8.33" length="9.03" width="1.00" shape="976.56,952.61 976.66,949.94 976.65,948.10 976.44,946.28 975.93,943.65"/>
    </edge>
    <edge id=":2530684915_9" function="internal">
        <lane id=":2530684915_9_0" index="0" allow="bicycle" speed="2.04" length="0.73" width="1.00" shape="976.56,952.61 976.83,952.25 977.08,952.13"/>
    </edge>
    <edge id=":2530684915_12" function="internal">
        <lane id=":2530684915_12_0" index="0" allow="bicycle" speed="2.04" length="0.73" width="1.00" shape="977.08,952.13 977.33,952.27 977.56,952.65"/>
    </edge>
    <edge id=":2530684916_0" function="internal">
        <lane id=":2530684916_0_0" index="0" allow="bicycle" speed="4.82" length="3.13" width="1.00" shape="975.89,943.46 975.64,942.73 975.21,942.13 974.60,941.66 973.82,941.31"/>
    </edge>
    <edge id=":2530684916_1" function="internal">
        <lane id=":2530684916_1_0" index="0" allow="bicycle" speed="6.58" length="3.90" width="1.00" shape="975.89,943.46 975.75,942.35 975.88,941.57 976.27,940.84 976.91,939.87"/>
    </edge>
    <edge id=":2530684916_2" function="internal">
        <lane id=":2530684916_2_0" index="0" allow="bicycle" speed="2.04" length="1.47" width="1.00" shape="975.89,943.46 976.01,943.02 976.22,942.83 976.49,942.87 976.85,943.15"/>
    </edge>
    <edge id=":2530684916_3" function="internal">
        <lane id=":2530684916_3_0" index="0" allow="bicycle" speed="2.99" length="2.51" width="1.00" shape="978.90,942.97 978.15,942.73 977.44,942.58 976.95,942.67 976.85,943.15"/>
    </edge>
    <edge id=":2530684916_4" function="internal">
        <lane id=":2530684916_4_0" index="0" allow="bicycle" speed="8.33" length="5.34" width="1.00" shape="978.90,942.97 973.82,941.31"/>
    </edge>
    <edge id=":2530684916_5" function="internal">
        <lane id=":2530684916_5_0" index="0" allow="bicycle" speed="4.12" length="4.42" width="1.00" shape="978.90,942.97 977.55,942.37 976.76,941.66 976.55,940.82 976.91,939.87"/>
    </edge>
    <edge id=":2530684916_6" function="internal">
        <lane id=":2530684916_6_0" index="0" allow="bicycle" speed="5.70" length="2.89" width="1.00" shape="977.75,940.41 976.85,943.15"/>
    </edge>
    <edge id=":2530684916_7" function="internal">
        <lane id=":2530684916_7_0" index="0" allow="bicycle" speed="4.91" length="4.37" width="1.00" shape="977.75,940.41 977.07,941.14 976.19,941.54 975.11,941.59 973.82,941.31"/>
    </edge>
    <edge id=":2530684916_8" function="internal">
        <lane id=":2530684916_8_0" index="0" allow="bicycle" speed="2.04" length="1.46" width="1.00" shape="977.75,940.41 977.34,940.59 977.06,940.56 976.92,940.32 976.91,939.87"/>
    </edge>
    <edge id=":2819073396_0" function="internal">
        <lane id=":2819073396_0_0" index="0" allow="bicycle" speed="8.33" length="0.10" width="1.00" shape="1519.77,361.34 1519.74,361.37"/>
    </edge>
    <edge id=":2819073396_1" function="internal">
        <lane id=":2819073396_1_0" index="0" allow="bicycle" speed="8.33" length="0.10" width="1.00" shape="1519.04,360.66 1519.02,360.68"/>
    </edge>
    <edge id=":2819073902_0" function="internal">
        <lane id=":2819073902_0_0" index="0" allow="bicycle" speed="3.83" length="2.42" width="1.00" shape="1047.80,845.32 1047.31,845.08 1046.87,845.29 1046.43,845.76 1045.94,846.31"/>
    </edge>
    <edge id=":2819073902_1" function="internal">
        <lane id=":2819073902_1_0" index="0" disallow="tram rail_urban rail rail_electric ship" speed="27.78" length="3.65" shape="1048.57,844.53 1045.99,842.00"/>
        <lane id=":2819073902_1_1" index="1" disallow="tram rail_urban rail rail_electric ship" speed="27.78" length="3.65" shape="1050.85,842.28 1048.23,839.71"/>
        <lane id=":2819073902_1_2" index="2" disallow="tram rail_urban rail rail_electric ship" speed="27.78" length="3.65" shape="1053.09,840.00 1050.47,837.43"/>
    </edge>
    <edge id=":2819073902_4" function="internal">
        <lane id=":2819073902_4_0" index="0" allow="bicycle" speed="4.08" length="2.92" width="1.00" shape="1053.86,839.21 1053.45,838.63 1053.35,838.01 1053.58,837.36 1054.12,836.66"/>
    </edge>
    <edge id=":2819073902_5" function="internal">
        <lane id=":2819073902_5_0" index="0" allow="bicycle" speed="8.33" length="12.62" width="1.00" shape="1054.83,837.37 1045.94,846.31"/>
    </edge>
    <edge id=":2819073902_6" function="internal">
        <lane id=":2819073902_6_0" index="0" disallow="tram rail_urban rail rail_electric ship" speed="5.12" length="5.89" shape="1054.83,837.37 1053.41,838.54 1052.07,839.07 1050.84,838.96 1049.70,838.22"/>
    </edge>
    <edge id=":2819073902_7" function="internal">
        <lane id=":2819073902_7_0" index="0" allow="bicycle" speed="2.04" length="1.46" width="1.00" shape="1054.83,837.37 1054.39,837.46 1054.13,837.37 1054.04,837.10 1054.12,836.66"/>
    </edge>
    <edge id=":2819073902_8" function="internal">
        <lane id=":2819073902_8_0" index="0" disallow="tram rail_urban rail rail_electric ship" speed="3.85" length="3.22" shape="1045.23,845.60 1045.76,844.90 1045.94,844.19 1045.76,843.49 1045.22,842.78"/>
    </edge>
    <edge id=":2819073902_9" function="internal">
        <lane id=":2819073902_9_0" index="0" allow="bicycle" speed="8.33" length="12.61" width="1.00" shape="1045.23,845.60 1054.12,836.66"/>
    </edge>
    <edge id=":2819073902_10" function="internal">
        <lane id=":2819073902_10_0" index="0" allow="bicycle" speed="2.04" length="1.46" width="1.00" shape="1045.23,845.60 1045.67,845.52 1045.94,845.60 1046.03,845.87 1045.94,846.31"/>
    </edge>
    <edge id=":2819073903_0" function="internal">
        <lane id=":2819073903_0_0" index="0" disallow="tram rail_urban rail rail_electric ship" speed="3.03" length="2.51" shape="986.41,906.93 983.93,907.37"/>
    </edge>
    <edge id=":2819073903_1" function="internal">
        <lane id=":2819073903_1_0" index="0" allow="bicycle" speed="8.33" length="10.44" width="1.00" shape="986.41,906.93 978.81,914.09"/>
    </edge>
    <edge id=":2819073903_2" function="internal">
        <lane id=":2819073903_2_0" index="0" allow="bicycle" speed="2.04" length="1.46" width="1.00" shape="986.41,906.93 985.97,907.02 985.70,906.94 985.61,906.68 985.69,906.23"/>
    </edge>
    <edge id=":2819073903_3" function="internal">
        <lane id=":2819073903_3_0" index="0" allow="bicycle" speed="6.89" length="6.62" width="1.00" shape="979.30,905.90 981.62,906.53 983.46,906.80 984.82,906.70 985.69,906.23"/>
    </edge>
    <edge id=":2819073903_4" function="internal">
        <lane id=":2819073903_4_0" index="0" disallow="tram rail_urban rail rail_electric ship" speed="13.89" length="4.86" shape="978.96,906.95 983.60,908.42"/>
        <lane id=":2819073903_4_1" index="1" disallow="tram rail_urban rail rail_electric ship" speed="13.89" length="4.86" shape="978.00,910.00 982.63,911.47"/>
    </edge>
    <edge id=":2819073903_6" function="internal">
        <lane id=":2819073903_6_0" index="0" allow="bicycle" speed="4.20" length="4.44" width="1.00" shape="977.66,911.05 979.00,911.64 979.64,912.34 979.58,913.16 978.81,914.09"/>
    </edge>
    <edge id=":2819073903_7" function="internal">
        <lane id=":2819073903_7_0" index="0" allow="bicycle" speed="8.33" length="10.30" width="1.00" shape="978.20,913.30 985.69,906.23"/>
    </edge>
    <edge id=":2819073903_8" function="internal">
        <lane id=":2819073903_8_0" index="0" disallow="tram rail_urban rail rail_electric ship" speed="6.48" length="5.68" shape="978.20,913.30 979.87,911.91 981.22,910.96 982.25,910.47 982.96,910.42"/>
    </edge>
    <edge id=":2819073903_9" function="internal">
        <lane id=":2819073903_9_0" index="0" allow="bicycle" speed="2.04" length="1.46" width="1.00" shape="978.20,913.30 978.65,913.27 978.90,913.39 978.95,913.67 978.81,914.09"/>
    </edge>
    <edge id=":2819073904_0" function="internal">
        <lane id=":2819073904_0_0" index="0" allow="bicycle" speed="2.98" length="2.49" width="1.00" shape="978.73,914.16 978.05,914.85 977.73,915.40 977.76,915.80 978.15,916.07"/>
    </edge>
    <edge id=":2819073904_1" function="internal">
        <lane id=":2819073904_1_0" index="0" allow="bicycle" speed="8.33" length="5.01" width="1.00" shape="978.73,914.16 977.62,915.15 976.87,915.84 976.17,916.57 975.17,917.67"/>
    </edge>
    <edge id=":2819073904_2" function="internal">
        <lane id=":2819073904_2_0" index="0" allow="bicycle" speed="2.04" length="1.46" width="1.00" shape="978.73,914.16 978.28,914.19 978.03,914.07 977.98,913.80 978.12,913.37"/>
    </edge>
    <edge id=":2819073904_3" function="internal">
        <lane id=":2819073904_3_0" index="0" allow="bicycle" speed="5.88" length="4.72" width="1.00" shape="973.79,914.61 974.86,914.79 975.94,914.65 977.02,914.17 978.12,913.37"/>
    </edge>
    <edge id=":2819073904_4" function="internal">
        <lane id=":2819073904_4_0" index="0" allow="bicycle" speed="8.33" length="4.60" width="1.00" shape="973.79,914.61 978.15,916.07"/>
    </edge>
    <edge id=":2819073904_5" function="internal">
        <lane id=":2819073904_5_0" index="0" allow="bicycle" speed="3.89" length="4.32" width="1.00" shape="973.79,914.61 975.07,915.20 975.73,915.90 975.76,916.73 975.17,917.67"/>
    </edge>
    <edge id=":2819073904_6" function="internal">
        <lane id=":2819073904_6_0" index="0" allow="bicycle" speed="8.33" length="5.19" width="1.00" shape="974.42,917.00 975.46,915.87 976.19,915.11 976.97,914.39 978.12,913.37"/>
    </edge>
    <edge id=":2819073904_7" function="internal">
        <lane id=":2819073904_7_0" index="0" allow="bicycle" speed="5.13" length="4.09" width="1.00" shape="974.42,917.00 975.23,916.31 976.12,915.93 977.09,915.85 978.15,916.07"/>
    </edge>
    <edge id=":2819073904_8" function="internal">
        <lane id=":2819073904_8_0" index="0" allow="bicycle" speed="2.04" length="1.46" width="1.00" shape="974.42,917.00 974.86,916.89 975.13,916.97 975.23,917.23 975.17,917.67"/>
    </edge>
    <edge id=":2819073905_0" function="internal">
        <lane id=":2819073905_0_0" index="0" allow="bicycle" speed="5.37" length="4.34" width="1.00" shape="968.96,928.23 967.85,928.04 966.84,928.19 965.93,928.69 965.14,929.53"/>
    </edge>
    <edge id=":2819073905_1" function="internal">
        <lane id=":2819073905_1_0" index="0" disallow="tram rail_urban rail rail_electric ship" speed="13.89" length="5.67" shape="969.29,927.18 963.89,925.44"/>
    </edge>
    <edge id=":2819073905_2" function="internal">
        <lane id=":2819073905_2_0" index="0" allow="bicycle" speed="5.07" length="1.29" width="1.00" shape="969.62,926.13 968.70,925.48 968.69,925.31"/>
    </edge>
    <edge id=":2819073905_3" function="internal">
        <lane id=":2819073905_3_0" index="0" disallow="tram rail_urban rail rail_electric ship" speed="3.65" length="2.34" shape="969.29,927.18 968.35,926.09 968.18,925.21"/>
    </edge>
    <edge id=":2819073905_16" function="internal">
        <lane id=":2819073905_16_0" index="0" allow="bicycle" speed="5.07" length="5.45" width="1.00" shape="968.69,925.31 968.65,924.34 969.46,922.73 971.13,920.64"/>
    </edge>
    <edge id=":2819073905_17" function="internal">
        <lane id=":2819073905_17_0" index="0" disallow="tram rail_urban rail rail_electric ship" speed="3.65" length="2.34" shape="968.18,925.21 968.78,924.55 970.15,924.10"/>
    </edge>
    <edge id=":2819073905_4" function="internal">
        <lane id=":2819073905_4_0" index="0" disallow="tram rail_urban rail rail_electric ship" speed="3.11" length="2.62" shape="971.87,921.31 971.24,921.86 970.56,922.35 970.20,922.76 970.47,923.05"/>
    </edge>
    <edge id=":2819073905_5" function="internal">
        <lane id=":2819073905_5_0" index="0" allow="bicycle" speed="8.33" length="10.63" width="1.00" shape="971.87,921.31 969.82,923.60 968.36,925.30 966.97,927.07 965.14,929.53"/>
    </edge>
    <edge id=":2819073905_6" function="internal">
        <lane id=":2819073905_6_0" index="0" disallow="tram rail_urban rail rail_electric ship" speed="8.02" length="10.18" shape="971.87,921.31 969.28,923.92 967.03,925.66 965.12,926.51 963.55,926.49"/>
    </edge>
    <edge id=":2819073905_7" function="internal">
        <lane id=":2819073905_7_0" index="0" allow="bicycle" speed="2.04" length="1.46" width="1.00" shape="971.87,921.31 971.43,921.42 971.16,921.35 971.06,921.09 971.13,920.64"/>
    </edge>
    <edge id=":2819073905_8" function="internal">
        <lane id=":2819073905_8_0" index="0" allow="bicycle" speed="6.57" length="6.28" width="1.00" shape="965.23,921.36 967.12,921.81 968.73,921.84 970.07,921.45 971.13,920.64"/>
    </edge>
    <edge id=":2819073905_9" function="internal">
        <lane id=":2819073905_9_0" index="0" disallow="tram rail_urban rail rail_electric ship" speed="13.89" length="5.52" shape="964.89,922.40 970.15,924.10"/>
    </edge>
    <edge id=":2819073905_10" function="internal">