<?xml version="1.0" encoding="UTF-8"?>

<!-- generated on 05/21/19 16:38:33 by Eclipse SUMO netconvert Version 1.2.0
<configuration xmlns:xsi="http://www.w3.org/2001/XMLSchema-instance" xsi:noNamespaceSchemaLocation="http://sumo.dlr.de/xsd/netconvertConfiguration.xsd">

    <input>
        <osm-files value="mallorca.osm"/>
    </input>

    <output>
        <output-file value="mallorca.net.xml"/>
    </output>

    <projection>
        <proj.utm value="true"/>
    </projection>

</configuration>
-->

<net version="1.1" junctionCornerDetail="5" limitTurnSpeed="5.50" xmlns:xsi="http://www.w3.org/2001/XMLSchema-instance" xsi:noNamespaceSchemaLocation="http://sumo.dlr.de/xsd/net_file.xsd">

    <location netOffset="-429899.87,-4582552.45" convBoundary="0.00,0.00,792.71,650.82" origBoundary="2.161434,41.391519,2.170986,41.397326" projParameter="+proj=utm +zone=31 +ellps=WGS84 +datum=WGS84 +units=m +no_defs"/>

    <type id="highway.bridleway" priority="1" numLanes="1" speed="2.78" allow="pedestrian" oneway="1" width="2.00"/>
    <type id="highway.bus_guideway" priority="1" numLanes="1" speed="27.78" allow="bus" oneway="1"/>
    <type id="highway.cycleway" priority="1" numLanes="1" speed="8.33" allow="bicycle" oneway="0" width="1.00"/>
    <type id="highway.footway" priority="1" numLanes="1" speed="2.78" allow="pedestrian" oneway="1" width="2.00"/>
    <type id="highway.ford" priority="1" numLanes="1" speed="2.78" allow="army" oneway="0"/>
    <type id="highway.living_street" priority="2" numLanes="1" speed="2.78" disallow="tram rail_urban rail rail_electric ship" oneway="0"/>
    <type id="highway.motorway" priority="14" numLanes="2" speed="39.44" allow="private emergency authority army vip passenger hov taxi bus coach delivery truck trailer motorcycle evehicle custom1 custom2" oneway="1"/>
    <type id="highway.motorway_link" priority="9" numLanes="1" speed="22.22" allow="private emergency authority army vip passenger hov taxi bus coach delivery truck trailer motorcycle evehicle custom1 custom2" oneway="1"/>
    <type id="highway.path" priority="1" numLanes="1" speed="2.78" allow="bicycle pedestrian" oneway="1" width="2.00"/>
    <type id="highway.pedestrian" priority="1" numLanes="1" speed="2.78" allow="pedestrian" oneway="1" width="2.00"/>
    <type id="highway.primary" priority="12" numLanes="2" speed="27.78" disallow="tram rail_urban rail rail_electric ship" oneway="0"/>
    <type id="highway.primary_link" priority="7" numLanes="1" speed="22.22" disallow="tram rail_urban rail rail_electric ship" oneway="0"/>
    <type id="highway.raceway" priority="15" numLanes="2" speed="83.33" allow="vip" oneway="0"/>
    <type id="highway.residential" priority="3" numLanes="1" speed="13.89" disallow="tram rail_urban rail rail_electric ship" oneway="0"/>
    <type id="highway.secondary" priority="11" numLanes="2" speed="27.78" disallow="tram rail_urban rail rail_electric ship" oneway="0"/>
    <type id="highway.secondary_link" priority="6" numLanes="1" speed="22.22" disallow="tram rail_urban rail rail_electric ship" oneway="0"/>
    <type id="highway.service" priority="1" numLanes="1" speed="5.56" allow="delivery bicycle pedestrian" oneway="0"/>
    <type id="highway.stairs" priority="1" numLanes="1" speed="1.39" allow="pedestrian" oneway="1" width="2.00"/>
    <type id="highway.step" priority="1" numLanes="1" speed="1.39" allow="pedestrian" oneway="1" width="2.00"/>
    <type id="highway.steps" priority="1" numLanes="1" speed="1.39" allow="pedestrian" oneway="1" width="2.00"/>
    <type id="highway.tertiary" priority="10" numLanes="1" speed="22.22" disallow="tram rail_urban rail rail_electric ship" oneway="0"/>
    <type id="highway.tertiary_link" priority="5" numLanes="1" speed="22.22" disallow="tram rail_urban rail rail_electric ship" oneway="0"/>
    <type id="highway.track" priority="1" numLanes="1" speed="5.56" disallow="tram rail_urban rail rail_electric ship" oneway="0"/>
    <type id="highway.trunk" priority="13" numLanes="2" speed="27.78" disallow="tram rail_urban rail rail_electric bicycle pedestrian ship" oneway="0"/>
    <type id="highway.trunk_link" priority="8" numLanes="1" speed="22.22" disallow="tram rail_urban rail rail_electric bicycle pedestrian ship" oneway="0"/>
    <type id="highway.unclassified" priority="4" numLanes="1" speed="13.89" disallow="tram rail_urban rail rail_electric ship" oneway="0"/>
    <type id="highway.unsurfaced" priority="1" numLanes="1" speed="8.33" disallow="tram rail_urban rail rail_electric ship" oneway="0"/>
    <type id="railway.light_rail" priority="19" numLanes="1" speed="27.78" allow="rail_urban" oneway="1"/>
    <type id="railway.preserved" priority="16" numLanes="1" speed="27.78" allow="rail" oneway="1"/>
    <type id="railway.rail" priority="20" numLanes="1" speed="83.33" allow="rail rail_electric" oneway="1"/>
    <type id="railway.subway" priority="18" numLanes="1" speed="27.78" allow="rail_urban" oneway="1"/>
    <type id="railway.tram" priority="17" numLanes="1" speed="13.89" allow="tram" oneway="1"/>

    <edge id=":1864143395_0" function="internal">
        <lane id=":1864143395_0_0" index="0" disallow="tram rail_urban rail rail_electric ship" speed="27.78" length="0.10" shape="8.43,607.01 8.49,606.95"/>
        <lane id=":1864143395_0_1" index="1" disallow="tram rail_urban rail rail_electric ship" speed="27.78" length="0.10" shape="10.70,609.26 10.64,609.32"/>
    </edge>
    <edge id=":2508272962_0" function="internal">
        <lane id=":2508272962_0_0" index="0" disallow="tram rail_urban rail rail_electric ship" speed="27.78" length="0.30" shape="789.31,10.36 789.10,10.58"/>
        <lane id=":2508272962_0_1" index="1" disallow="tram rail_urban rail rail_electric ship" speed="27.78" length="0.30" shape="787.02,8.13 786.81,8.34"/>
        <lane id=":2508272962_0_2" index="2" disallow="tram rail_urban rail rail_electric ship" speed="27.78" length="0.30" shape="784.72,5.89 784.52,6.11"/>
        <lane id=":2508272962_0_3" index="3" disallow="tram rail_urban rail rail_electric ship" speed="27.78" length="0.30" shape="782.43,3.66 782.23,3.87"/>
    </edge>
    <edge id=":30243328_0" function="internal">
        <lane id=":30243328_0_0" index="0" disallow="tram rail_urban rail rail_electric ship" speed="6.49" length="9.03" shape="420.70,388.05 419.23,390.04 418.75,392.02 419.26,394.00 420.78,395.96"/>
    </edge>
    <edge id=":30243328_1" function="internal">
        <lane id=":30243328_1_0" index="0" disallow="tram rail_urban rail rail_electric ship" speed="27.78" length="14.53" shape="420.70,388.05 410.60,398.41"/>
        <lane id=":30243328_1_1" index="1" disallow="tram rail_urban rail rail_electric ship" speed="27.78" length="14.53" shape="418.42,385.80 408.29,396.19"/>
        <lane id=":30243328_1_2" index="2" disallow="tram rail_urban rail rail_electric ship" speed="27.78" length="14.53" shape="416.15,383.55 405.99,393.97"/>
        <lane id=":30243328_1_3" index="3" disallow="tram rail_urban rail rail_electric ship" speed="27.78" length="14.53" shape="413.87,381.31 403.68,391.75"/>
    </edge>
    <edge id=":30243328_5" function="internal">
        <lane id=":30243328_5_0" index="0" disallow="tram rail_urban rail rail_electric ship" speed="27.78" length="20.86" shape="405.67,381.52 420.78,395.96"/>
        <lane id=":30243328_5_1" index="1" disallow="tram rail_urban rail rail_electric ship" speed="27.78" length="20.86" shape="403.48,383.86 418.54,398.25"/>
    </edge>
    <edge id=":30243328_7" function="internal">
        <lane id=":30243328_7_0" index="0" disallow="tram rail_urban rail rail_electric ship" speed="7.30" length="11.75" shape="403.48,383.86 406.05,386.75 407.33,389.40 407.31,391.81 405.99,393.97"/>
    </edge>
    <edge id=":30243328_8" function="internal">
        <lane id=":30243328_8_0" index="0" disallow="tram rail_urban rail rail_electric ship" speed="6.48" length="9.03" shape="403.48,383.86 405.03,385.79 405.58,387.75 405.13,389.74 403.68,391.75"/>
    </edge>
    <edge id=":30243373_0" function="internal">
        <lane id=":30243373_0_0" index="0" disallow="tram rail_urban rail rail_electric ship" speed="27.78" length="14.44" shape="224.86,400.81 214.56,390.63"/>
        <lane id=":30243373_0_1" index="1" disallow="tram rail_urban rail rail_electric ship" speed="27.78" length="14.44" shape="227.09,398.52 216.82,388.37"/>
        <lane id=":30243373_0_2" index="2" disallow="tram rail_urban rail rail_electric ship" speed="27.78" length="14.44" shape="229.33,396.22 219.09,386.11"/>
    </edge>
    <edge id=":30243373_3" function="internal">
        <lane id=":30243373_3_0" index="0" disallow="tram rail_urban rail rail_electric ship" speed="6.55" length="9.10" shape="229.33,396.22 227.82,394.26 227.31,392.28 227.78,390.26 229.25,388.22"/>
    </edge>
    <edge id=":30243373_4" function="internal">
        <lane id=":30243373_4_0" index="0" disallow="tram rail_urban rail rail_electric ship" speed="6.55" length="9.11" shape="214.68,398.63 216.14,396.64 216.61,394.65 216.08,392.65 214.56,390.63"/>
    </edge>
    <edge id=":30243373_5" function="internal">
        <lane id=":30243373_5_0" index="0" disallow="tram rail_urban rail rail_electric ship" speed="8.03" length="14.25" shape="216.95,400.88 219.25,397.77 220.00,394.64 219.19,391.51 216.82,388.37"/>
    </edge>
    <edge id=":30243373_6" function="internal">
        <lane id=":30243373_6_0" index="0" disallow="tram rail_urban rail rail_electric ship" speed="27.78" length="18.00" shape="216.95,400.88 220.30,396.78 221.99,393.49 223.65,390.18 226.93,386.02"/>
    </edge>
    <edge id=":30243375_0" function="internal">
        <lane id=":30243375_0_0" index="0" disallow="tram rail_urban rail rail_electric ship" speed="7.44" length="11.82" shape="322.83,496.37 319.83,493.93 317.10,492.75 314.66,492.82 312.49,494.14"/>
    </edge>
    <edge id=":30243375_1" function="internal">
        <lane id=":30243375_1_0" index="0" disallow="tram rail_urban rail rail_electric ship" speed="27.78" length="20.54" shape="322.83,496.37 308.12,482.02"/>
        <lane id=":30243375_1_1" index="1" disallow="tram rail_urban rail rail_electric ship" speed="27.78" length="20.54" shape="325.07,494.08 310.36,479.73"/>
        <lane id=":30243375_1_2" index="2" disallow="tram rail_urban rail rail_electric ship" speed="27.78" length="20.54" shape="327.30,491.79 312.59,477.44"/>
    </edge>
    <edge id=":30243375_4" function="internal">
        <lane id=":30243375_4_0" index="0" disallow="tram rail_urban rail rail_electric ship" speed="27.78" length="18.99" shape="327.20,484.05 322.76,487.17 318.82,488.02 314.84,488.83 310.27,491.83"/>
    </edge>
    <edge id=":30243375_5" function="internal">
        <lane id=":30243375_5_0" index="0" disallow="tram rail_urban rail rail_electric ship" speed="9.21" length="19.15" shape="324.91,481.81 320.76,485.01 316.57,486.11 312.36,485.12 308.12,482.02"/>
    </edge>
    <edge id=":30243375_6" function="internal">
        <lane id=":30243375_6_0" index="0" disallow="tram rail_urban rail rail_electric ship" speed="7.95" length="13.99" shape="322.62,479.58 319.59,481.92 316.53,482.72 313.45,481.99 310.36,479.73"/>
    </edge>
    <edge id=":30243375_7" function="internal">
        <lane id=":30243375_7_0" index="0" disallow="tram rail_urban rail rail_electric ship" speed="6.44" length="8.83" shape="320.33,477.34 318.42,478.82 316.49,479.33 314.55,478.87 312.59,477.44"/>
    </edge>
    <edge id=":30254227_0" function="internal">
        <lane id=":30254227_0_0" index="0" disallow="tram rail_urban rail rail_electric ship" speed="6.47" length="9.04" shape="307.48,288.77 309.46,290.26 311.44,290.75 313.41,290.24 315.37,288.72"/>
    </edge>
    <edge id=":30254227_1" function="internal">
        <lane id=":30254227_1_0" index="0" disallow="tram rail_urban rail rail_electric ship" speed="7.29" length="11.76" shape="307.48,288.77 310.45,291.25 313.14,292.45 315.54,292.35 317.67,290.95"/>
    </edge>
    <edge id=":30254227_2" function="internal">
        <lane id=":30254227_2_0" index="0" disallow="tram rail_urban rail rail_electric ship" speed="27.78" length="20.91" shape="307.48,288.77 322.44,303.30"/>
        <lane id=":30254227_2_1" index="1" disallow="tram rail_urban rail rail_electric ship" speed="27.78" length="20.91" shape="305.21,291.02 320.25,305.64"/>
    </edge>
    <edge id=":30254227_4" function="internal">
        <lane id=":30254227_4_0" index="0" disallow="tram rail_urban rail rail_electric ship" speed="20.83" length="14.94" shape="307.60,301.40 310.97,298.60 313.76,297.27 316.57,295.96 319.96,293.18"/>
        <lane id=":30254227_4_1" index="1" disallow="tram rail_urban rail rail_electric ship" speed="20.83" length="14.94" shape="309.92,303.61 313.28,300.82 316.07,299.49 318.87,298.18 322.26,295.41"/>
    </edge>
    <edge id=":30254227_6" function="internal">
        <lane id=":30254227_6_0" index="0" disallow="tram rail_urban rail rail_electric ship" speed="7.37" length="4.82" shape="309.92,303.61 312.01,302.22 314.32,302.10"/>
    </edge>
    <edge id=":30254227_7" function="internal">
        <lane id=":30254227_7_0" index="0" disallow="tram rail_urban rail rail_electric ship" speed="7.37" length="6.99" shape="314.32,302.10 314.43,302.09 317.18,303.23 320.25,305.64"/>
    </edge>
    <edge id=":3184416480_0" function="internal">
        <lane id=":3184416480_0_0" index="0" disallow="tram rail_urban rail rail_electric ship" speed="27.78" length="0.10" shape="392.99,564.81 392.99,564.81"/>
        <lane id=":3184416480_0_1" index="1" disallow="tram rail_urban rail rail_electric ship" speed="27.78" length="0.10" shape="395.22,562.52 395.22,562.52"/>
        <lane id=":3184416480_0_2" index="2" disallow="tram rail_urban rail rail_electric ship" speed="27.78" length="0.10" shape="397.46,560.23 397.46,560.23"/>
    </edge>
    <edge id=":3184416483_0" function="internal">
        <lane id=":3184416483_0_0" index="0" disallow="tram rail_urban rail rail_electric ship" speed="27.78" length="0.30" shape="491.51,464.45 491.72,464.64"/>
        <lane id=":3184416483_0_1" index="1" disallow="tram rail_urban rail rail_electric ship" speed="27.78" length="0.30" shape="489.29,466.75 489.51,466.96"/>
    </edge>
    <edge id=":3184416514_0" function="internal">
        <lane id=":3184416514_0_0" index="0" disallow="tram rail_urban rail rail_electric ship" speed="27.78" length="0.30" shape="778.41,21.32 778.27,21.47"/>
        <lane id=":3184416514_0_1" index="1" disallow="tram rail_urban rail rail_electric ship" speed="27.78" length="0.30" shape="776.15,19.05 775.97,19.24"/>
        <lane id=":3184416514_0_2" index="2" disallow="tram rail_urban rail rail_electric ship" speed="27.78" length="0.30" shape="773.89,16.79 773.66,17.02"/>
        <lane id=":3184416514_0_3" index="3" disallow="tram rail_urban rail rail_electric ship" speed="27.78" length="0.30" shape="771.64,14.52 771.36,14.79"/>
    </edge>
    <edge id=":3184416519_0" function="internal">
        <lane id=":3184416519_0_0" index="0" disallow="tram rail_urban rail rail_electric ship" speed="27.78" length="0.30" shape="712.46,89.13 712.25,89.34"/>
        <lane id=":3184416519_0_1" index="1" disallow="tram rail_urban rail rail_electric ship" speed="27.78" length="0.30" shape="710.17,86.89 709.96,87.11"/>
        <lane id=":3184416519_0_2" index="2" disallow="tram rail_urban rail rail_electric ship" speed="27.78" length="0.30" shape="707.88,84.66 707.67,84.87"/>
        <lane id=":3184416519_0_3" index="3" disallow="tram rail_urban rail rail_electric ship" speed="27.78" length="0.30" shape="705.59,82.43 705.38,82.64"/>
    </edge>
    <edge id=":3184416522_0" function="internal">
        <lane id=":3184416522_0_0" index="0" disallow="tram rail_urban rail rail_electric ship" speed="27.78" length="0.30" shape="676.12,126.37 675.91,126.58"/>
        <lane id=":3184416522_0_1" index="1" disallow="tram rail_urban rail rail_electric ship" speed="27.78" length="0.30" shape="673.83,124.14 673.62,124.35"/>
        <lane id=":3184416522_0_2" index="2" disallow="tram rail_urban rail rail_electric ship" speed="27.78" length="0.30" shape="671.54,121.90 671.33,122.12"/>
        <lane id=":3184416522_0_3" index="3" disallow="tram rail_urban rail rail_electric ship" speed="27.78" length="0.30" shape="669.25,119.67 669.04,119.88"/>
    </edge>
    <edge id=":3184416523_0" function="internal">
        <lane id=":3184416523_0_0" index="0" disallow="tram rail_urban rail rail_electric ship" speed="27.78" length="0.30" shape="620.33,183.57 620.12,183.78"/>
        <lane id=":3184416523_0_1" index="1" disallow="tram rail_urban rail rail_electric ship" speed="27.78" length="0.30" shape="618.04,181.33 617.83,181.54"/>
        <lane id=":3184416523_0_2" index="2" disallow="tram rail_urban rail rail_electric ship" speed="27.78" length="0.30" shape="615.75,179.09 615.54,179.31"/>
        <lane id=":3184416523_0_3" index="3" disallow="tram rail_urban rail rail_electric ship" speed="27.78" length="0.30" shape="613.46,176.86 613.25,177.08"/>
    </edge>
    <edge id=":3184416527_0" function="internal">
        <lane id=":3184416527_0_0" index="0" disallow="tram rail_urban rail rail_electric ship" speed="27.78" length="0.30" shape="584.88,219.91 584.66,220.13"/>
        <lane id=":3184416527_0_1" index="1" disallow="tram rail_urban rail rail_electric ship" speed="27.78" length="0.30" shape="582.58,217.68 582.37,217.89"/>
        <lane id=":3184416527_0_2" index="2" disallow="tram rail_urban rail rail_electric ship" speed="27.78" length="0.30" shape="580.29,215.44 580.09,215.65"/>
        <lane id=":3184416527_0_3" index="3" disallow="tram rail_urban rail rail_electric ship" speed="27.78" length="0.30" shape="578.00,213.21 577.80,213.42"/>
    </edge>
    <edge id=":3184416532_0" function="internal">
        <lane id=":3184416532_0_0" index="0" disallow="tram rail_urban rail rail_electric ship" speed="27.78" length="0.29" shape="530.87,275.03 530.70,275.21"/>
        <lane id=":3184416532_0_1" index="1" disallow="tram rail_urban rail rail_electric ship" speed="27.78" length="0.29" shape="528.59,272.78 528.40,272.98"/>
        <lane id=":3184416532_0_2" index="2" disallow="tram rail_urban rail rail_electric ship" speed="27.78" length="0.29" shape="526.31,270.54 526.10,270.76"/>
        <lane id=":3184416532_0_3" index="3" disallow="tram rail_urban rail rail_electric ship" speed="27.78" length="0.29" shape="524.04,268.29 523.80,268.54"/>
    </edge>
    <edge id=":3184416533_0" function="internal">
        <lane id=":3184416533_0_0" index="0" disallow="tram rail_urban rail rail_electric ship" speed="27.78" length="0.10" shape="489.62,317.56 489.62,317.56"/>
        <lane id=":3184416533_0_1" index="1" disallow="tram rail_urban rail rail_electric ship" speed="27.78" length="0.10" shape="487.33,315.33 487.33,315.33"/>
        <lane id=":3184416533_0_2" index="2" disallow="tram rail_urban rail rail_electric ship" speed="27.78" length="0.10" shape="485.04,313.09 485.04,313.09"/>
        <lane id=":3184416533_0_3" index="3" disallow="tram rail_urban rail rail_electric ship" speed="27.78" length="0.10" shape="482.74,310.86 482.75,310.86"/>
    </edge>
    <edge id=":3184416534_0" function="internal">
        <lane id=":3184416534_0_0" index="0" disallow="tram rail_urban rail rail_electric ship" speed="27.78" length="0.30" shape="394.16,370.74 394.38,370.94"/>
        <lane id=":3184416534_0_1" index="1" disallow="tram rail_urban rail rail_electric ship" speed="27.78" length="0.30" shape="391.96,373.06 392.19,373.28"/>
    </edge>
    <edge id=":3184416535_0" function="internal">
        <lane id=":3184416535_0_0" index="0" disallow="tram rail_urban rail rail_electric ship" speed="27.78" length="0.30" shape="433.20,375.39 432.97,375.62"/>
        <lane id=":3184416535_0_1" index="1" disallow="tram rail_urban rail rail_electric ship" speed="27.78" length="0.30" shape="430.91,373.15 430.69,373.37"/>
        <lane id=":3184416535_0_2" index="2" disallow="tram rail_urban rail rail_electric ship" speed="27.78" length="0.30" shape="428.62,370.92 428.42,371.12"/>
        <lane id=":3184416535_0_3" index="3" disallow="tram rail_urban rail rail_electric ship" speed="27.78" length="0.30" shape="426.33,368.68 426.14,368.88"/>
    </edge>
    <edge id=":3184416536_0" function="internal">
        <lane id=":3184416536_0_0" index="0" disallow="tram rail_urban rail rail_electric ship" speed="27.78" length="0.30" shape="398.81,410.65 398.58,410.89"/>
        <lane id=":3184416536_0_1" index="1" disallow="tram rail_urban rail rail_electric ship" speed="27.78" length="0.30" shape="396.51,408.43 396.29,408.65"/>
        <lane id=":3184416536_0_2" index="2" disallow="tram rail_urban rail rail_electric ship" speed="27.78" length="0.30" shape="394.20,406.21 394.00,406.41"/>
        <lane id=":3184416536_0_3" index="3" disallow="tram rail_urban rail rail_electric ship" speed="27.78" length="0.30" shape="391.90,403.99 391.72,404.18"/>
    </edge>
    <edge id=":3184416537_0" function="internal">
        <lane id=":3184416537_0_0" index="0" disallow="tram rail_urban rail rail_electric ship" speed="27.78" length="0.30" shape="430.10,405.05 430.31,405.25"/>
        <lane id=":3184416537_0_1" index="1" disallow="tram rail_urban rail rail_electric ship" speed="27.78" length="0.30" shape="427.87,407.34 428.09,407.55"/>
    </edge>
    <edge id=":3184416538_0" function="internal">
        <lane id=":3184416538_0_0" index="0" disallow="tram rail_urban rail rail_electric ship" speed="27.78" length="0.30" shape="338.36,472.61 338.15,472.83"/>
        <lane id=":3184416538_0_1" index="1" disallow="tram rail_urban rail rail_electric ship" speed="27.78" length="0.30" shape="336.07,470.38 335.86,470.60"/>
        <lane id=":3184416538_0_2" index="2" disallow="tram rail_urban rail rail_electric ship" speed="27.78" length="0.30" shape="333.77,468.15 333.57,468.36"/>
        <lane id=":3184416538_0_3" index="3" disallow="tram rail_urban rail rail_electric ship" speed="27.78" length="0.30" shape="331.48,465.92 331.28,466.13"/>
    </edge>
    <edge id=":3184416539_0" function="internal">
        <lane id=":3184416539_0_0" index="0" disallow="tram rail_urban rail rail_electric ship" speed="27.78" length="0.10" shape="333.50,506.77 333.50,506.77"/>
        <lane id=":3184416539_0_1" index="1" disallow="tram rail_urban rail rail_electric ship" speed="27.78" length="0.10" shape="335.73,504.48 335.73,504.48"/>
        <lane id=":3184416539_0_2" index="2" disallow="tram rail_urban rail rail_electric ship" speed="27.78" length="0.10" shape="337.97,502.19 337.97,502.19"/>
    </edge>
    <edge id=":3184416540_0" function="internal">
        <lane id=":3184416540_0_0" index="0" disallow="tram rail_urban rail rail_electric ship" speed="27.78" length="0.26" shape="300.04,506.10 299.90,506.24"/>
        <lane id=":3184416540_0_1" index="1" disallow="tram rail_urban rail rail_electric ship" speed="27.78" length="0.26" shape="297.82,503.79 297.58,504.03"/>
    </edge>
    <edge id=":3184416541_0" function="internal">
        <lane id=":3184416541_0_0" index="0" disallow="tram rail_urban rail rail_electric ship" speed="27.78" length="0.10" shape="293.24,467.50 293.24,467.50"/>
        <lane id=":3184416541_0_1" index="1" disallow="tram rail_urban rail rail_electric ship" speed="27.78" length="0.10" shape="295.47,465.21 295.47,465.21"/>
        <lane id=":3184416541_0_2" index="2" disallow="tram rail_urban rail rail_electric ship" speed="27.78" length="0.10" shape="297.71,462.92 297.71,462.92"/>
    </edge>
    <edge id=":3184416542_0" function="internal">
        <lane id=":3184416542_0_0" index="0" disallow="tram rail_urban rail rail_electric ship" speed="27.78" length="0.28" shape="243.00,566.10 242.78,566.32"/>
        <lane id=":3184416542_0_1" index="1" disallow="tram rail_urban rail rail_electric ship" speed="27.78" length="0.28" shape="240.68,563.89 240.50,564.08"/>
    </edge>
    <edge id=":3184416545_0" function="internal">
        <lane id=":3184416545_0_0" index="0" disallow="tram rail_urban rail rail_electric ship" speed="27.78" length="0.30" shape="207.43,602.98 207.21,603.20"/>
        <lane id=":3184416545_0_1" index="1" disallow="tram rail_urban rail rail_electric ship" speed="27.78" length="0.30" shape="205.12,600.75 204.93,600.96"/>
    </edge>
    <edge id=":3184416548_0" function="internal">
        <lane id=":3184416548_0_0" index="0" disallow="tram rail_urban rail rail_electric ship" speed="27.78" length="0.10" shape="166.58,644.74 166.63,644.68"/>
        <lane id=":3184416548_0_1" index="1" disallow="tram rail_urban rail rail_electric ship" speed="27.78" length="0.10" shape="164.29,642.50 164.24,642.56"/>
    </edge>
    <edge id=":3184416762_0" function="internal">
        <lane id=":3184416762_0_0" index="0" disallow="tram rail_urban rail rail_electric ship" speed="27.78" length="0.28" shape="25.70,589.56 25.92,589.33"/>
        <lane id=":3184416762_0_1" index="1" disallow="tram rail_urban rail rail_electric ship" speed="27.78" length="0.28" shape="28.02,591.76 28.19,591.59"/>
    </edge>
    <edge id=":3184416763_0" function="internal">
        <lane id=":3184416763_0_0" index="0" disallow="tram rail_urban rail rail_electric ship" speed="27.78" length="0.30" shape="38.80,576.32 39.01,576.11"/>
        <lane id=":3184416763_0_1" index="1" disallow="tram rail_urban rail rail_electric ship" speed="27.78" length="0.30" shape="41.07,578.57 41.28,578.36"/>
    </edge>
    <edge id=":3184416776_0" function="internal">
        <lane id=":3184416776_0_0" index="0" disallow="tram rail_urban rail rail_electric ship" speed="27.78" length="0.10" shape="109.39,505.00 109.39,505.00"/>
        <lane id=":3184416776_0_1" index="1" disallow="tram rail_urban rail rail_electric ship" speed="27.78" length="0.10" shape="111.67,507.25 111.67,507.25"/>
    </edge>
    <edge id=":3184416781_0" function="internal">
        <lane id=":3184416781_0_0" index="0" disallow="tram rail_urban rail rail_electric ship" speed="27.78" length="0.10" shape="144.48,469.55 144.48,469.55"/>
        <lane id=":3184416781_0_1" index="1" disallow="tram rail_urban rail rail_electric ship" speed="27.78" length="0.10" shape="146.76,471.80 146.76,471.80"/>
    </edge>
    <edge id=":3184416782_0" function="internal">
        <lane id=":3184416782_0_0" index="0" disallow="tram rail_urban rail rail_electric ship" speed="27.78" length="0.10" shape="203.32,410.10 203.32,410.10"/>
        <lane id=":3184416782_0_1" index="1" disallow="tram rail_urban rail rail_electric ship" speed="27.78" length="0.10" shape="205.59,412.36 205.59,412.36"/>
    </edge>
    <edge id=":3184416783_0" function="internal">
        <lane id=":3184416783_0_0" index="0" disallow="tram rail_urban rail rail_electric ship" speed="27.78" length="0.10" shape="201.66,377.71 201.66,377.71"/>
        <lane id=":3184416783_0_1" index="1" disallow="tram rail_urban rail rail_electric ship" speed="27.78" length="0.10" shape="203.92,375.45 203.92,375.45"/>
        <lane id=":3184416783_0_2" index="2" disallow="tram rail_urban rail rail_electric ship" speed="27.78" length="0.10" shape="206.18,373.19 206.18,373.19"/>
    </edge>
    <edge id=":3184416784_0" function="internal">
        <lane id=":3184416784_0_0" index="0" disallow="tram rail_urban rail rail_electric ship" speed="27.78" length="0.10" shape="236.80,412.45 236.80,412.45"/>
        <lane id=":3184416784_0_1" index="1" disallow="tram rail_urban rail rail_electric ship" speed="27.78" length="0.10" shape="239.04,410.16 239.04,410.16"/>
        <lane id=":3184416784_0_2" index="2" disallow="tram rail_urban rail rail_electric ship" speed="27.78" length="0.10" shape="241.27,407.87 241.27,407.87"/>
    </edge>
    <edge id=":3184416785_0" function="internal">
        <lane id=":3184416785_0_0" index="0" disallow="tram rail_urban rail rail_electric ship" speed="27.78" length="0.10" shape="239.24,373.12 239.24,373.12"/>
        <lane id=":3184416785_0_1" index="1" disallow="tram rail_urban rail rail_electric ship" speed="27.78" length="0.10" shape="241.55,375.33 241.55,375.33"/>
    </edge>
    <edge id=":3184416786_0" function="internal">
        <lane id=":3184416786_0_0" index="0" disallow="tram rail_urban rail rail_electric ship" speed="27.78" length="0.30" shape="296.73,312.80 296.94,312.59"/>
        <lane id=":3184416786_0_1" index="1" disallow="tram rail_urban rail rail_electric ship" speed="27.78" length="0.30" shape="299.05,315.01 299.26,314.79"/>
    </edge>
    <edge id=":3184416787_0" function="internal">
        <lane id=":3184416787_0_0" index="0" disallow="tram rail_urban rail rail_electric ship" speed="27.78" length="0.10" shape="295.88,277.09 295.88,277.08"/>
        <lane id=":3184416787_0_1" index="1" disallow="tram rail_urban rail rail_electric ship" speed="27.78" length="0.10" shape="293.61,279.34 293.61,279.34"/>
    </edge>
    <edge id=":3184416788_0" function="internal">
        <lane id=":3184416788_0_0" index="0" disallow="tram rail_urban rail rail_electric ship" speed="27.78" length="0.30" shape="333.06,313.26 333.28,313.46"/>
        <lane id=":3184416788_0_1" index="1" disallow="tram rail_urban rail rail_electric ship" speed="27.78" length="0.30" shape="330.88,315.59 331.09,315.79"/>
    </edge>
    <edge id=":3184416789_0" function="internal">
        <lane id=":3184416789_0_0" index="0" disallow="tram rail_urban rail rail_electric ship" speed="13.89" length="0.30" shape="326.66,277.12 326.86,276.91"/>
        <lane id=":3184416789_0_1" index="1" disallow="tram rail_urban rail rail_electric ship" speed="13.89" length="0.30" shape="328.95,279.35 329.16,279.14"/>
        <lane id=":3184416789_0_2" index="2" disallow="tram rail_urban rail rail_electric ship" speed="13.89" length="0.30" shape="331.25,281.58 331.46,281.36"/>
        <lane id=":3184416789_0_3" index="3" disallow="tram rail_urban rail rail_electric ship" speed="13.89" length="0.30" shape="333.54,283.81 333.75,283.59"/>
    </edge>