<?xml version="1.0" encoding="UTF-8"?>

<!-- generated on 05/21/19 16:22:40 by Eclipse SUMO netconvert Version 1.2.0
<configuration xmlns:xsi="http://www.w3.org/2001/XMLSchema-instance" xsi:noNamespaceSchemaLocation="http://sumo.dlr.de/xsd/netconvertConfiguration.xsd">

    <input>
        <osm-files value="map.osm"/>
    </input>

    <output>
        <output-file value="map.net.xml"/>
    </output>

    <projection>
        <proj.utm value="true"/>
    </projection>

</configuration>
-->

<net version="1.1" junctionCornerDetail="5" limitTurnSpeed="5.50" xmlns:xsi="http://www.w3.org/2001/XMLSchema-instance" xsi:noNamespaceSchemaLocation="http://sumo.dlr.de/xsd/net_file.xsd">

    <location netOffset="-428894.63,-4581173.54" convBoundary="0.00,0.00,3507.09,4001.98" origBoundary="2.149645,41.378943,2.191136,41.415290" projParameter="+proj=utm +zone=31 +ellps=WGS84 +datum=WGS84 +units=m +no_defs"/>

    <type id="highway.bridleway" priority="1" numLanes="1" speed="2.78" allow="pedestrian" oneway="1" width="2.00"/>
    <type id="highway.bus_guideway" priority="1" numLanes="1" speed="27.78" allow="bus" oneway="1"/>
    <type id="highway.cycleway" priority="1" numLanes="1" speed="8.33" allow="bicycle" oneway="0" width="1.00"/>
    <type id="highway.footway" priority="1" numLanes="1" speed="2.78" allow="pedestrian" oneway="1" width="2.00"/>
    <type id="highway.ford" priority="1" numLanes="1" speed="2.78" allow="army" oneway="0"/>
    <type id="highway.living_street" priority="2" numLanes="1" speed="2.78" disallow="tram rail_urban rail rail_electric ship" oneway="0"/>
    <type id="highway.motorway" priority="14" numLanes="2" speed="39.44" allow="private emergency authority army vip passenger hov taxi bus coach delivery truck trailer motorcycle evehicle custom1 custom2" oneway="1"/>
    <type id="highway.motorway_link" priority="9" numLanes="1" speed="22.22" allow="private emergency authority army vip passenger hov taxi bus coach delivery truck trailer motorcycle evehicle custom1 custom2" oneway="1"/>
    <type id="highway.path" priority="1" numLanes="1" speed="2.78" allow="bicycle pedestrian" oneway="1" width="2.00"/>
    <type id="highway.pedestrian" priority="1" numLanes="1" speed="2.78" allow="pedestrian" oneway="1" width="2.00"/>
    <type id="highway.primary" priority="12" numLanes="2" speed="27.78" disallow="tram rail_urban rail rail_electric ship" oneway="0"/>
    <type id="highway.primary_link" priority="7" numLanes="1" speed="22.22" disallow="tram rail_urban rail rail_electric ship" oneway="0"/>
    <type id="highway.raceway" priority="15" numLanes="2" speed="83.33" allow="vip" oneway="0"/>
    <type id="highway.residential" priority="3" numLanes="1" speed="13.89" disallow="tram rail_urban rail rail_electric ship" oneway="0"/>
    <type id="highway.secondary" priority="11" numLanes="2" speed="27.78" disallow="tram rail_urban rail rail_electric ship" oneway="0"/>
    <type id="highway.secondary_link" priority="6" numLanes="1" speed="22.22" disallow="tram rail_urban rail rail_electric ship" oneway="0"/>
    <type id="highway.service" priority="1" numLanes="1" speed="5.56" allow="delivery bicycle pedestrian" oneway="0"/>
    <type id="highway.stairs" priority="1" numLanes="1" speed="1.39" allow="pedestrian" oneway="1" width="2.00"/>
    <type id="highway.step" priority="1" numLanes="1" speed="1.39" allow="pedestrian" oneway="1" width="2.00"/>
    <type id="highway.steps" priority="1" numLanes="1" speed="1.39" allow="pedestrian" oneway="1" width="2.00"/>
    <type id="highway.tertiary" priority="10" numLanes="1" speed="22.22" disallow="tram rail_urban rail rail_electric ship" oneway="0"/>
    <type id="highway.tertiary_link" priority="5" numLanes="1" speed="22.22" disallow="tram rail_urban rail rail_electric ship" oneway="0"/>
    <type id="highway.track" priority="1" numLanes="1" speed="5.56" disallow="tram rail_urban rail rail_electric ship" oneway="0"/>
    <type id="highway.trunk" priority="13" numLanes="2" speed="27.78" disallow="tram rail_urban rail rail_electric bicycle pedestrian ship" oneway="0"/>
    <type id="highway.trunk_link" priority="8" numLanes="1" speed="22.22" disallow="tram rail_urban rail rail_electric bicycle pedestrian ship" oneway="0"/>
    <type id="highway.unclassified" priority="4" numLanes="1" speed="13.89" disallow="tram rail_urban rail rail_electric ship" oneway="0"/>
    <type id="highway.unsurfaced" priority="1" numLanes="1" speed="8.33" disallow="tram rail_urban rail rail_electric ship" oneway="0"/>
    <type id="railway.light_rail" priority="19" numLanes="1" speed="27.78" allow="rail_urban" oneway="1"/>
    <type id="railway.preserved" priority="16" numLanes="1" speed="27.78" allow="rail" oneway="1"/>
    <type id="railway.rail" priority="20" numLanes="1" speed="83.33" allow="rail rail_electric" oneway="1"/>
    <type id="railway.subway" priority="18" numLanes="1" speed="27.78" allow="rail_urban" oneway="1"/>
    <type id="railway.tram" priority="17" numLanes="1" speed="13.89" allow="tram" oneway="1"/>

    <edge id=":1159755012_0" function="internal">
        <lane id=":1159755012_0_0" index="0" disallow="tram rail_urban rail rail_electric ship" speed="13.89" length="7.18" shape="2408.29,2461.80 2406.35,2462.91 2404.95,2463.53 2403.47,2463.99 2401.32,2464.62"/>
        <lane id=":1159755012_0_1" index="1" disallow="tram rail_urban rail rail_electric ship" speed="13.89" length="7.18" shape="2406.67,2459.04 2404.93,2460.03 2403.66,2460.58 2402.33,2460.99 2400.39,2461.55"/>
    </edge>
    <edge id=":1286855172_0" function="internal">
        <lane id=":1286855172_0_0" index="0" disallow="tram rail_urban rail rail_electric ship" speed="27.78" length="11.20" shape="2217.18,2549.26 2225.23,2557.05"/>
        <lane id=":1286855172_0_1" index="1" disallow="tram rail_urban rail rail_electric ship" speed="27.78" length="11.20" shape="2214.96,2551.56 2223.01,2559.35"/>
    </edge>
    <edge id=":1286855172_2" function="internal">
        <lane id=":1286855172_2_0" index="0" disallow="tram rail_urban rail rail_electric ship" speed="6.49" length="9.03" shape="2215.10,2559.51 2217.05,2557.98 2219.02,2557.44 2221.00,2557.90 2223.01,2559.35"/>
    </edge>
    <edge id=":1286855176_0" function="internal">
        <lane id=":1286855176_0_0" index="0" disallow="tram rail_urban rail rail_electric ship" speed="27.78" length="11.07" shape="2138.81,2473.42 2146.77,2481.12"/>
        <lane id=":1286855176_0_1" index="1" disallow="tram rail_urban rail rail_electric ship" speed="27.78" length="11.07" shape="2136.59,2475.72 2144.54,2483.42"/>
    </edge>
    <edge id=":1286855176_2" function="internal">
        <lane id=":1286855176_2_0" index="0" disallow="tram rail_urban rail rail_electric ship" speed="6.52" length="8.97" shape="2136.65,2483.52 2138.61,2482.03 2140.59,2481.52 2142.56,2481.98 2144.54,2483.42"/>
    </edge>
    <edge id=":1297469521_0" function="internal">
        <lane id=":1297469521_0_0" index="0" allow="bicycle" speed="8.33" length="5.33" width="1.00" shape="2453.89,2460.50 2452.72,2461.57 2451.94,2462.32 2451.24,2463.14 2450.30,2464.41"/>
    </edge>
    <edge id=":1297469521_1" function="internal">
        <lane id=":1297469521_1_0" index="0" allow="bicycle" speed="2.04" length="1.46" width="1.00" shape="2453.89,2460.50 2453.44,2460.57 2453.18,2460.47 2453.10,2460.20 2453.21,2459.76"/>
    </edge>
    <edge id=":1297469521_2" function="internal">
        <lane id=":1297469521_2_0" index="0" allow="bicycle" speed="8.33" length="5.53" width="1.00" shape="2449.48,2463.83 2450.46,2462.51 2451.19,2461.66 2452.00,2460.87 2453.21,2459.76"/>
    </edge>
    <edge id=":1297469521_3" function="internal">
        <lane id=":1297469521_3_0" index="0" allow="bicycle" speed="2.04" length="1.46" width="1.00" shape="2449.48,2463.83 2449.91,2463.67 2450.18,2463.71 2450.31,2463.96 2450.30,2464.41"/>
    </edge>
    <edge id=":1297469526_0" function="internal">
        <lane id=":1297469526_0_0" index="0" disallow="tram rail_urban rail rail_electric ship" speed="22.22" length="4.93" shape="2531.94,2479.82 2535.26,2483.34"/>
        <lane id=":1297469526_0_1" index="1" disallow="tram rail_urban rail rail_electric ship" speed="22.22" length="4.93" shape="2529.68,2482.09 2533.07,2485.67"/>
        <lane id=":1297469526_0_2" index="2" disallow="tram rail_urban rail rail_electric ship" speed="22.22" length="4.93" shape="2527.43,2484.36 2530.87,2488.00"/>
    </edge>
    <edge id=":1297469528_0" function="internal">
        <lane id=":1297469528_0_0" index="0" disallow="tram rail_urban rail rail_electric ship" speed="27.78" length="6.44" shape="2581.83,2504.95 2585.89,2499.79"/>
        <lane id=":1297469528_0_1" index="1" disallow="tram rail_urban rail rail_electric ship" speed="27.78" length="6.44" shape="2584.44,2506.80 2588.34,2501.85"/>
    </edge>
    <edge id=":1303457329_0" function="internal">
        <lane id=":1303457329_0_0" index="0" disallow="tram rail_urban rail rail_electric ship" speed="6.47" length="8.98" shape="2329.04,2581.71 2327.57,2583.69 2327.10,2585.66 2327.61,2587.62 2329.12,2589.57"/>
    </edge>
    <edge id=":1303457329_1" function="internal">
        <lane id=":1303457329_1_0" index="0" disallow="tram rail_urban rail rail_electric ship" speed="13.89" length="11.11" shape="2329.04,2581.71 2321.27,2589.63"/>
        <lane id=":1303457329_1_1" index="1" disallow="tram rail_urban rail rail_electric ship" speed="13.89" length="11.11" shape="2326.76,2579.46 2318.98,2587.40"/>
    </edge>
    <edge id=":1303457341_0" function="internal">
        <lane id=":1303457341_0_0" index="0" disallow="tram rail_urban rail rail_electric ship" speed="6.49" length="9.03" shape="2412.81,2670.50 2414.82,2671.96 2416.80,2672.42 2418.77,2671.88 2420.72,2670.35"/>
    </edge>
    <edge id=":1303457341_1" function="internal">
        <lane id=":1303457341_1_0" index="0" disallow="tram rail_urban rail rail_electric ship" speed="27.78" length="11.20" shape="2412.98,2678.45 2420.72,2670.35"/>
        <lane id=":1303457341_1_1" index="1" disallow="tram rail_urban rail rail_electric ship" speed="27.78" length="11.20" shape="2415.29,2680.66 2423.03,2672.56"/>
    </edge>
    <edge id=":1307271989_0" function="internal">
        <lane id=":1307271989_0_0" index="0" disallow="tram rail_urban rail rail_electric ship" speed="27.78" length="11.09" shape="2050.48,2577.70 2042.57,2569.98"/>
        <lane id=":1307271989_0_1" index="1" disallow="tram rail_urban rail rail_electric ship" speed="27.78" length="11.09" shape="2052.74,2575.44 2044.78,2567.66"/>
    </edge>
    <edge id=":1307271989_2" function="internal">
        <lane id=":1307271989_2_0" index="0" disallow="tram rail_urban rail rail_electric ship" speed="6.51" length="9.01" shape="2052.74,2575.44 2051.27,2573.46 2050.77,2571.49 2051.27,2569.51 2052.75,2567.53"/>
    </edge>
    <edge id=":1311619311_0" function="internal">
        <lane id=":1311619311_0_0" index="0" disallow="tram rail_urban rail rail_electric ship" speed="3.65" length="4.67" shape="1859.08,2273.59 1858.19,2272.46 1858.06,2271.57 1858.69,2270.94 1860.08,2270.55"/>
    </edge>
    <edge id=":1311619319_0" function="internal">
        <lane id=":1311619319_0_0" index="0" disallow="tram rail_urban rail rail_electric ship" speed="13.89" length="14.78" shape="2007.06,2320.77 1992.92,2316.44"/>
    </edge>
    <edge id=":1311619319_1" function="internal">
        <lane id=":1311619319_1_0" index="0" disallow="tram rail_urban rail rail_electric ship" speed="9.55" length="13.36" shape="1993.82,2313.37 1997.60,2314.10 2000.93,2313.94 2003.82,2312.89 2006.25,2310.96"/>
    </edge>
    <edge id=":1311619319_2" function="internal">
        <lane id=":1311619319_2_0" index="0" disallow="tram rail_urban rail rail_electric ship" speed="13.89" length="14.86" shape="1993.82,2313.37 2008.03,2317.72"/>
    </edge>
    <edge id=":1311619319_3" function="internal">
        <lane id=":1311619319_3_0" index="0" disallow="tram rail_urban rail rail_electric ship" speed="3.65" length="2.34" shape="1993.82,2313.37 1994.75,2314.48 1994.91,2315.36"/>
    </edge>
    <edge id=":1311619319_7" function="internal">
        <lane id=":1311619319_7_0" index="0" disallow="tram rail_urban rail rail_electric ship" speed="3.65" length="2.34" shape="1994.91,2315.36 1994.30,2316.01 1992.92,2316.44"/>
    </edge>
    <edge id=":1311619319_4" function="internal">
        <lane id=":1311619319_4_0" index="0" disallow="tram rail_urban rail rail_electric ship" speed="5.50" length="8.49" shape="1995.39,2322.31 1996.71,2320.45 1996.75,2318.85 1995.48,2317.52 1992.92,2316.44"/>
    </edge>
    <edge id=":1311619319_5" function="internal">
        <lane id=":1311619319_5_0" index="0" disallow="tram rail_urban rail rail_electric ship" speed="22.22" length="15.71" shape="1995.39,2322.31 2006.25,2310.96"/>
    </edge>
    <edge id=":1311619319_6" function="internal">
        <lane id=":1311619319_6_0" index="0" disallow="tram rail_urban rail rail_electric ship" speed="9.87" length="14.16" shape="1995.39,2322.31 1998.61,2319.56 2001.80,2317.88 2004.93,2317.27 2008.03,2317.72"/>
    </edge>
    <edge id=":1311619326_0" function="internal">
        <lane id=":1311619326_0_0" index="0" disallow="tram rail_urban rail rail_electric ship" speed="13.89" length="33.12" shape="1982.32,2313.34 1950.69,2303.52"/>
    </edge>
    <edge id=":1311619326_1" function="internal">
        <lane id=":1311619326_1_0" index="0" disallow="tram rail_urban rail rail_electric ship" speed="20.83" length="31.44" shape="1956.53,2293.97 1963.02,2299.29 1970.74,2304.23 1978.02,2308.12 1983.22,2310.27"/>
    </edge>
    <edge id=":1311619326_2" function="internal">
        <lane id=":1311619326_2_0" index="0" disallow="tram rail_urban rail rail_electric ship" speed="27.78" length="28.92" shape="1956.53,2293.97 1976.76,2314.73"/>
        <lane id=":1311619326_2_1" index="1" disallow="tram rail_urban rail rail_electric ship" speed="27.78" length="28.92" shape="1954.27,2296.24 1974.41,2316.90"/>
    </edge>
    <edge id=":1311619326_4" function="internal">
        <lane id=":1311619326_4_0" index="0" disallow="tram rail_urban rail rail_electric ship" speed="6.95" length="10.49" shape="1954.27,2296.24 1958.81,2301.42 1959.73,2304.36 1959.22,2304.49"/>
    </edge>
    <edge id=":1311619326_7" function="internal">
        <lane id=":1311619326_7_0" index="0" disallow="tram rail_urban rail rail_electric ship" speed="6.95" length="8.78" shape="1959.22,2304.49 1957.02,2305.06 1950.69,2303.52"/>
    </edge>
    <edge id=":1311619326_5" function="internal">
        <lane id=":1311619326_5_0" index="0" disallow="tram rail_urban rail rail_electric ship" speed="13.89" length="33.02" shape="1951.69,2300.47 1983.22,2310.27"/>
    </edge>
    <edge id=":1311619326_6" function="internal">
        <lane id=":1311619326_6_0" index="0" disallow="tram rail_urban rail rail_electric ship" speed="3.65" length="4.67" shape="1951.69,2300.47 1952.58,2301.61 1952.71,2302.49 1952.08,2303.13 1950.69,2303.52"/>
    </edge>
    <edge id=":1311619516_0" function="internal">
        <lane id=":1311619516_0_0" index="0" disallow="tram rail_urban rail rail_electric ship" speed="13.89" length="59.36" shape="2252.08,2420.96 2243.40,2416.78 2226.42,2411.32 2208.19,2406.06 2195.78,2402.46"/>
    </edge>
    <edge id=":1311619516_1" function="internal">
        <lane id=":1311619516_1_0" index="0" allow="bicycle" speed="11.11" length="16.79" width="1.00" shape="2252.97,2420.32 2249.85,2417.94 2245.62,2416.35 2241.45,2414.72 2238.51,2412.22"/>
    </edge>
    <edge id=":1311619516_2" function="internal">
        <lane id=":1311619516_2_0" index="0" disallow="tram rail_urban rail rail_electric ship" speed="13.89" length="52.31" shape="2247.64,2413.19 2237.04,2413.71 2221.88,2410.54 2206.63,2406.01 2195.78,2402.46"/>
        <lane id=":1311619516_2_1" index="1" disallow="tram rail_urban rail rail_electric ship" speed="13.89" length="52.31" shape="2246.29,2410.28 2236.06,2410.78 2221.69,2407.56 2207.24,2402.98 2196.76,2399.41"/>
    </edge>
    <edge id=":1311619516_4" function="internal">
        <lane id=":1311619516_4_0" index="0" allow="bicycle" speed="6.40" length="7.99" width="1.00" shape="2245.83,2409.28 2244.38,2410.04 2242.02,2411.23 2239.74,2412.18 2238.51,2412.22"/>
    </edge>
    <edge id=":1475966958_0" function="internal">
        <lane id=":1475966958_0_0" index="0" disallow="tram rail_urban rail rail_electric ship" speed="13.89" length="0.30" shape="2649.73,1849.64 2649.52,1849.86"/>
        <lane id=":1475966958_0_1" index="1" disallow="tram rail_urban rail rail_electric ship" speed="13.89" length="0.30" shape="2647.43,1847.42 2647.23,1847.63"/>
    </edge>
    <edge id=":1475966966_0" function="internal">
        <lane id=":1475966966_0_0" index="0" disallow="tram rail_urban rail rail_electric ship" speed="13.89" length="0.10" shape="2597.95,1902.81 2597.95,1902.81"/>
        <lane id=":1475966966_0_1" index="1" disallow="tram rail_urban rail rail_electric ship" speed="13.89" length="0.10" shape="2595.65,1900.58 2595.65,1900.58"/>
    </edge>
    <edge id=":1475966986_0" function="internal">
        <lane id=":1475966986_0_0" index="0" disallow="tram rail_urban rail rail_electric ship" speed="13.89" length="0.30" shape="2557.38,1944.71 2557.16,1944.93"/>
        <lane id=":1475966986_0_1" index="1" disallow="tram rail_urban rail rail_electric ship" speed="13.89" length="0.30" shape="2555.07,1942.49 2554.88,1942.69"/>
    </edge>
    <edge id=":1475966988_0" function="internal">
        <lane id=":1475966988_0_0" index="0" disallow="tram rail_urban rail rail_electric ship" speed="13.89" length="0.30" shape="2492.28,2011.31 2492.07,2011.52"/>
        <lane id=":1475966988_0_1" index="1" disallow="tram rail_urban rail rail_electric ship" speed="13.89" length="0.30" shape="2489.99,2009.07 2489.78,2009.28"/>
    </edge>
    <edge id=":1716102034_0" function="internal">
        <lane id=":1716102034_0_0" index="0" disallow="tram rail_urban rail rail_electric ship" speed="13.89" length="10.98" shape="2040.58,2473.36 2032.86,2481.15"/>
        <lane id=":1716102034_0_1" index="1" disallow="tram rail_urban rail rail_electric ship" speed="13.89" length="10.98" shape="2038.32,2471.10 2030.57,2478.91"/>
    </edge>
    <edge id=":1716102034_2" function="internal">
        <lane id=":1716102034_2_0" index="0" disallow="tram rail_urban rail rail_electric ship" speed="5.43" length="5.88" shape="2033.55,2474.12 2033.69,2474.75 2033.23,2475.76 2032.20,2477.14 2030.57,2478.91"/>
    </edge>
    <edge id=":1770635933_0" function="internal">
        <lane id=":1770635933_0_0" index="0" disallow="tram rail_urban rail rail_electric ship" speed="4.93" length="6.73" shape="2438.33,2441.90 2438.10,2442.56 2438.86,2443.35 2440.62,2444.27 2443.38,2445.31"/>
    </edge>
    <edge id=":1770635933_1" function="internal">
        <lane id=":1770635933_1_0" index="0" disallow="tram rail_urban rail rail_electric ship" speed="6.76" length="14.01" shape="2436.30,2439.42 2434.46,2441.80 2434.86,2444.08 2437.49,2446.26 2442.35,2448.34"/>
    </edge>
    <edge id=":1770635933_2" function="internal">
        <lane id=":1770635933_2_0" index="0" disallow="tram rail_urban rail rail_electric ship" speed="13.89" length="13.49" shape="2436.30,2439.42 2433.48,2442.34 2432.02,2444.82 2430.49,2447.21 2427.48,2449.87"/>
        <lane id=":1770635933_2_1" index="1" disallow="tram rail_urban rail rail_electric ship" speed="13.89" length="13.49" shape="2436.30,2439.42 2425.66,2447.23"/>
    </edge>
    <edge id=":1770635933_4" function="internal">
        <lane id=":1770635933_4_0" index="0" disallow="tram rail_urban rail rail_electric ship" speed="13.89" length="19.15" shape="2424.69,2440.94 2428.19,2442.28 2431.92,2444.03 2436.44,2446.09 2442.35,2448.34"/>
    </edge>
    <edge id=":1770635937_0" function="internal">
        <lane id=":1770635937_0_0" index="0" disallow="tram rail_urban rail rail_electric ship" speed="13.89" length="5.84" shape="2134.94,2361.11 2129.33,2359.48"/>
    </edge>
    <edge id=":1770635937_1" function="internal">
        <lane id=":1770635937_1_0" index="0" disallow="tram rail_urban rail rail_electric ship" speed="13.89" length="6.24" shape="2130.30,2356.43 2132.06,2356.99 2133.26,2357.42 2134.43,2357.91 2136.10,2358.70"/>
    </edge>
    <edge id=":1770635937_2" function="internal">
        <lane id=":1770635937_2_0" index="0" disallow="tram rail_urban rail rail_electric ship" speed="3.65" length="2.34" shape="2130.30,2356.43 2131.20,2357.55 2131.34,2358.44"/>
    </edge>
    <edge id=":1770635937_3" function="internal">
        <lane id=":1770635937_3_0" index="0" disallow="tram rail_urban rail rail_electric ship" speed="3.65" length="2.34" shape="2131.34,2358.44 2130.72,2359.08 2129.33,2359.48"/>
    </edge>
    <edge id=":1770635938_0" function="internal">
        <lane id=":1770635938_0_0" index="0" disallow="tram rail_urban rail rail_electric ship" speed="5.48" length="8.99" shape="2154.61,2358.26 2152.91,2360.37 2152.66,2362.07 2153.86,2363.35 2156.52,2364.22"/>
    </edge>
    <edge id=":1770635938_1" function="internal">
        <lane id=":1770635938_1_0" index="0" disallow="tram rail_urban rail rail_electric ship" speed="22.22" length="9.25" shape="2154.61,2358.26 2148.05,2364.63"/>
        <lane id=":1770635938_1_1" index="1" disallow="tram rail_urban rail rail_electric ship" speed="22.22" length="9.25" shape="2152.39,2355.94 2145.68,2362.47"/>
    </edge>
    <edge id=":1770635938_3" function="internal">
        <lane id=":1770635938_3_0" index="0" disallow="tram rail_urban rail rail_electric ship" speed="13.89" length="12.90" shape="2143.85,2361.81 2156.52,2364.22"/>
    </edge>
    <edge id=":1844140133_0" function="internal">
        <lane id=":1844140133_0_0" index="0" disallow="tram rail_urban rail rail_electric ship" speed="13.89" length="5.07" shape="1951.35,2563.34 1947.79,2566.93"/>
        <lane id=":1844140133_0_1" index="1" disallow="tram rail_urban rail rail_electric ship" speed="13.89" length="5.07" shape="1949.09,2561.08 1945.51,2564.69"/>
    </edge>
    <edge id=":1860476035_0" function="internal">
        <lane id=":1860476035_0_0" index="0" disallow="tram rail_urban rail rail_electric ship" speed="27.78" length="11.12" shape="2130.06,2656.39 2122.11,2648.62"/>
        <lane id=":1860476035_0_1" index="1" disallow="tram rail_urban rail rail_electric ship" speed="27.78" length="11.12" shape="2132.30,2654.11 2124.35,2646.34"/>
    </edge>
    <edge id=":1860476035_2" function="internal">
        <lane id=":1860476035_2_0" index="0" disallow="tram rail_urban rail rail_electric ship" speed="6.52" length="8.99" shape="2132.30,2654.11 2130.81,2652.16 2130.29,2650.19 2130.75,2648.21 2132.19,2646.20"/>
    </edge>
    <edge id=":1863407125_0" function="internal">
        <lane id=":1863407125_0_0" index="0" disallow="tram rail_urban rail rail_electric ship" speed="13.89" length="5.16" shape="2425.72,2578.89 2421.97,2575.17"/>
        <lane id=":1863407125_0_1" index="1" disallow="tram rail_urban rail rail_electric ship" speed="13.89" length="5.16" shape="2427.96,2576.59 2424.25,2572.92"/>
        <lane id=":1863407125_0_2" index="2" disallow="tram rail_urban rail rail_electric ship" speed="13.89" length="5.16" shape="2430.19,2574.30 2426.53,2570.67"/>
        <lane id=":1863407125_0_3" index="3" disallow="tram rail_urban rail rail_electric ship" speed="13.89" length="5.16" shape="2432.42,2572.01 2428.80,2568.42"/>
        <lane id=":1863407125_0_4" index="4" disallow="tram rail_urban rail rail_electric ship" speed="13.89" length="5.16" shape="2434.66,2569.72 2431.08,2566.18"/>
    </edge>
    <edge id=":1864143485_0" function="internal">
        <lane id=":1864143485_0_0" index="0" disallow="tram rail_urban rail rail_electric ship" speed="13.89" length="0.30" shape="2463.29,2041.07 2463.08,2041.28"/>
        <lane id=":1864143485_0_1" index="1" disallow="tram rail_urban rail rail_electric ship" speed="13.89" length="0.30" shape="2461.00,2038.83 2460.79,2039.05"/>
    </edge>
    <edge id=":2269130871_0" function="internal">
        <lane id=":2269130871_0_0" index="0" disallow="tram rail_urban rail rail_electric ship" speed="22.22" length="0.30" shape="2543.01,2148.24 2543.22,2148.02"/>
    </edge>
    <edge id=":2269130874_0" function="internal">
        <lane id=":2269130874_0_0" index="0" disallow="tram rail_urban rail rail_electric ship" speed="22.22" length="5.04" shape="2480.47,2213.20 2483.99,2209.60"/>
    </edge>
    <edge id=":2269130877_0" function="internal">
        <lane id=":2269130877_0_0" index="0" disallow="tram rail_urban rail rail_electric ship" speed="13.89" length="0.30" shape="2446.24,2212.39 2446.03,2212.18"/>
        <lane id=":2269130877_0_1" index="1" disallow="tram rail_urban rail rail_electric ship" speed="13.89" length="0.30" shape="2448.47,2210.10 2448.25,2209.89"/>
    </edge>
    <edge id=":2269130880_0" function="internal">
        <lane id=":2269130880_0_0" index="0" disallow="tram rail_urban rail rail_electric ship" speed="13.89" length="0.30" shape="2480.81,2246.03 2480.60,2245.83"/>
        <lane id=":2269130880_0_1" index="1" disallow="tram rail_urban rail rail_electric ship" speed="13.89" length="0.30" shape="2483.06,2243.75 2482.84,2243.53"/>
    </edge>
    <edge id=":2269130883_0" function="internal">
        <lane id=":2269130883_0_0" index="0" disallow="tram rail_urban rail rail_electric ship" speed="22.22" length="5.15" shape="2444.23,2248.94 2447.87,2245.31"/>
    </edge>
    <edge id=":2535697864_0" function="internal">
        <lane id=":2535697864_0_0" index="0" allow="rail rail_electric" speed="83.33" length="32.89" shape="2204.87,2351.16 2209.83,2355.43 2217.57,2361.61 2225.42,2367.64 2230.72,2371.48"/>
    </edge>
    <edge id=":2535697864_1" function="internal">
        <lane id=":2535697864_1_0" index="0" allow="rail rail_electric" speed="83.33" length="32.89" shape="2204.87,2351.16 2228.43,2374.12"/>
    </edge>
    <edge id=":2669069243_0" function="internal">
        <lane id=":2669069243_0_0" index="0" disallow="tram rail_urban rail rail_electric ship" speed="13.89" length="0.10" shape="2481.28,2022.59 2481.28,2022.59"/>
        <lane id=":2669069243_0_1" index="1" disallow="tram rail_urban rail rail_electric ship" speed="13.89" length="0.10" shape="2478.99,2020.36 2478.99,2020.36"/>
    </edge>
    <edge id=":2775313791_0" function="internal">
        <lane id=":2775313791_0_0" index="0" disallow="tram rail_urban rail rail_electric ship" speed="4.22" length="3.55" shape="2481.07,2429.21 2480.66,2430.02 2480.61,2430.82 2480.90,2431.60 2481.55,2432.36"/>
    </edge>
    <edge id=":2775313791_1" function="internal">
        <lane id=":2775313791_1_0" index="0" allow="bicycle" speed="8.33" length="12.64" width="1.00" shape="2481.07,2429.21 2472.98,2438.93"/>
    </edge>
    <edge id=":2775313791_2" function="internal">
        <lane id=":2775313791_2_0" index="0" disallow="tram rail_urban rail rail_electric ship" speed="13.89" length="4.48" shape="2477.64,2430.18 2480.81,2433.18"/>
        <lane id=":2775313791_2_1" index="1" disallow="tram rail_urban rail rail_electric ship" speed="13.89" length="4.48" shape="2475.40,2432.47 2478.66,2435.54"/>
        <lane id=":2775313791_2_2" index="2" disallow="tram rail_urban rail rail_electric ship" speed="13.89" length="4.48" shape="2473.16,2434.75 2476.51,2437.91"/>
    </edge>
    <edge id=":2775313791_5" function="internal">
        <lane id=":2775313791_5_0" index="0" allow="bicycle" speed="4.66" length="3.84" width="1.00" shape="2472.39,2435.54 2473.13,2436.43 2473.47,2437.30 2473.42,2438.13 2472.98,2438.93"/>
    </edge>
    <edge id=":2775313794_0" function="internal">
        <lane id=":2775313794_0_0" index="0" allow="bicycle" speed="7.13" length="4.43" width="1.00" shape="2484.11,2422.47 2484.21,2423.77 2484.15,2424.70 2483.80,2425.54 2483.06,2426.59"/>
    </edge>
    <edge id=":2775313794_1" function="internal">
        <lane id=":2775313794_1_0" index="0" allow="bicycle" speed="3.94" length="3.60" width="1.00" shape="2482.21,2423.61 2483.06,2424.31 2483.48,2425.04 2483.48,2425.80 2483.06,2426.59"/>
    </edge>
    <edge id=":2775313798_0" function="internal">
        <lane id=":2775313798_0_0" index="0" allow="bicycle" speed="3.81" length="2.37" width="1.00" shape="2567.61,2334.99 2567.17,2334.38 2566.85,2333.78 2566.53,2333.44 2566.09,2333.62"/>
    </edge>
    <edge id=":2775313798_1" function="internal">
        <lane id=":2775313798_1_0" index="0" disallow="tram rail_urban rail rail_electric ship" speed="13.89" length="2.94" shape="2568.38,2334.20 2566.27,2332.18"/>
        <lane id=":2775313798_1_1" index="1" disallow="tram rail_urban rail rail_electric ship" speed="13.89" length="2.94" shape="2570.60,2331.90 2568.46,2329.85"/>
    </edge>
    <edge id=":2775313798_3" function="internal">
        <lane id=":2775313798_3_0" index="0" allow="bicycle" speed="8.33" length="7.47" width="1.00" shape="2571.31,2328.28 2566.09,2333.62"/>
    </edge>
    <edge id=":2775313798_4" function="internal">
        <lane id=":2775313798_4_0" index="0" disallow="tram rail_urban rail rail_electric ship" speed="4.52" length="4.50" shape="2571.31,2328.28 2570.56,2329.05 2569.52,2329.99 2568.48,2330.67 2567.71,2330.65"/>
    </edge>
    <edge id=":2775313811_0" function="internal">
        <lane id=":2775313811_0_0" index="0" allow="bicycle" speed="8.33" length="7.00" width="1.00" shape="2494.78,2406.98 2489.90,2412.00"/>
    </edge>
    <edge id=":2775313812_0" function="internal">
        <lane id=":2775313812_0_0" index="0" allow="bicycle" speed="8.33" length="7.01" width="1.00" shape="2471.53,2393.24 2476.38,2388.18"/>
    </edge>
    <edge id=":2775313813_0" function="internal">
        <lane id=":2775313813_0_0" index="0" allow="bicycle" speed="8.33" length="4.17" width="1.00" shape="2432.39,2437.70 2428.36,2436.66"/>
    </edge>
    <edge id=":2775313813_1" function="internal">