<?xml version="1.0" encoding="UTF-8"?>

<!-- generated on qui 27 jun 2019 13:27:48 CEST by Eclipse SUMO netedit Version 1.2.0
<configuration xmlns:xsi="http://www.w3.org/2001/XMLSchema-instance" xsi:noNamespaceSchemaLocation="http://sumo.dlr.de/xsd/netconvertConfiguration.xsd">

    <input>
        <sumo-net-file value="/home/jrd/Desktop/1.Master_Thesis/MS_Transports_RL/Scripts/Simple_Cross/cross_RL/network/complex_network_no_RL.net.xml"/>
    </input>

    <output>
        <output-file value="/home/jrd/Desktop/1.Master_Thesis/MS_Transports_RL/Scripts/Simple_Cross/cross_RL_bigger_influence_area/network/complex_network_no_RL.net.xml"/>
    </output>

    <processing>
        <geometry.max-grade.fix value="false"/>
        <offset.disable-normalization value="true"/>
        <lefthand value="false"/>
    </processing>

    <junctions>
        <no-turnarounds value="true"/>
        <junctions.corner-detail value="5"/>
        <junctions.limit-turn-speed value="5.5"/>
        <rectangular-lane-cut value="false"/>
    </junctions>

    <pedestrian>
        <walkingareas value="false"/>
    </pedestrian>

</configuration>
-->

<net version="1.1" junctionCornerDetail="5" limitTurnSpeed="5.50" xmlns:xsi="http://www.w3.org/2001/XMLSchema-instance" xsi:noNamespaceSchemaLocation="http://sumo.dlr.de/xsd/net_file.xsd">

    <location netOffset="0.00,0.00" convBoundary="-500.00,-500.00,500.00,500.00" origBoundary="-10000000000.00,-10000000000.00,10000000000.00,10000000000.00" projParameter="!"/>

    <edge id=":0_0" function="internal">
        <lane id=":0_0_0" index="0" speed="6.51" length="9.03" shape="-8.00,13.60 -8.35,11.15 -9.40,9.40 -11.15,8.35 -13.60,8.00"/>
    </edge>
    <edge id=":0_1" function="internal">
        <lane id=":0_1_0" index="0" speed="19.44" length="27.20" shape="-8.00,13.60 -8.00,-13.60"/>
        <lane id=":0_1_1" index="1" speed="19.44" length="27.20" shape="-4.80,13.60 -4.80,-13.60"/>
    </edge>
    <edge id=":0_3" function="internal">
        <lane id=":0_3_0" index="0" speed="10.36" length="24.51" shape="-1.60,13.60 -0.65,6.95 2.20,2.20 6.95,-0.65 13.60,-1.60"/>
    </edge>
    <edge id=":0_4" function="internal">
        <lane id=":0_4_0" index="0" speed="6.51" length="9.03" shape="13.60,8.00 11.15,8.35 9.40,9.40 8.35,11.15 8.00,13.60"/>
    </edge>
    <edge id=":0_5" function="internal">
        <lane id=":0_5_0" index="0" speed="19.44" length="27.20" shape="13.60,8.00 -13.60,8.00"/>
        <lane id=":0_5_1" index="1" speed="19.44" length="27.20" shape="13.60,4.80 -13.60,4.80"/>
    </edge>
    <edge id=":0_7" function="internal">
        <lane id=":0_7_0" index="0" speed="10.36" length="24.51" shape="13.60,1.60 6.95,0.65 2.20,-2.20 -0.65,-6.95 -1.60,-13.60"/>
    </edge>
    <edge id=":0_8" function="internal">
        <lane id=":0_8_0" index="0" speed="6.51" length="9.03" shape="8.00,-13.60 8.35,-11.15 9.40,-9.40 11.15,-8.35 13.60,-8.00"/>
    </edge>
    <edge id=":0_9" function="internal">
        <lane id=":0_9_0" index="0" speed="19.44" length="27.20" shape="8.00,-13.60 8.00,13.60"/>
        <lane id=":0_9_1" index="1" speed="19.44" length="27.20" shape="4.80,-13.60 4.80,13.60"/>
    </edge>
    <edge id=":0_11" function="internal">
        <lane id=":0_11_0" index="0" speed="10.36" length="24.51" shape="1.60,-13.60 0.65,-6.95 -2.20,-2.20 -6.95,0.65 -13.60,1.60"/>
    </edge>
    <edge id=":0_12" function="internal">
        <lane id=":0_12_0" index="0" speed="6.51" length="9.03" shape="-13.60,-8.00 -11.15,-8.35 -9.40,-9.40 -8.35,-11.15 -8.00,-13.60"/>
    </edge>
    <edge id=":0_13" function="internal">
        <lane id=":0_13_0" index="0" speed="19.44" length="27.20" shape="-13.60,-8.00 13.60,-8.00"/>
        <lane id=":0_13_1" index="1" speed="19.44" length="27.20" shape="-13.60,-4.80 13.60,-4.80"/>
    </edge>
    <edge id=":0_15" function="internal">
        <lane id=":0_15_0" index="0" speed="10.36" length="24.51" shape="-13.60,-1.60 -6.95,-0.65 -2.20,2.20 0.65,6.95 1.60,13.60"/>
    </edge>
    <edge id=":1_0" function="internal">
        <lane id=":1_0_0" index="0" speed="19.44" length="0.10" shape="-8.00,200.00 -8.00,200.00"/>
        <lane id=":1_0_1" index="1" speed="19.44" length="0.10" shape="-4.80,200.00 -4.80,200.00"/>
        <lane id=":1_0_2" index="2" speed="19.44" length="0.10" shape="-1.60,200.00 -1.60,200.00"/>
    </edge>
    <edge id=":1_3" function="internal">
        <lane id=":1_3_0" index="0" speed="19.44" length="0.10" shape="8.00,200.00 8.00,200.00"/>
        <lane id=":1_3_1" index="1" speed="19.44" length="0.10" shape="4.80,200.00 4.80,200.00"/>
        <lane id=":1_3_2" index="2" speed="19.44" length="0.10" shape="1.60,200.00 1.60,200.00"/>
    </edge>
    <edge id=":3_0" function="internal">
        <lane id=":3_0_0" index="0" speed="19.44" length="0.10" shape="200.00,8.00 200.00,8.00"/>
        <lane id=":3_0_1" index="1" speed="19.44" length="0.10" shape="200.00,4.80 200.00,4.80"/>
        <lane id=":3_0_2" index="2" speed="19.44" length="0.10" shape="200.00,1.60 200.00,1.60"/>
    </edge>
    <edge id=":3_3" function="internal">
        <lane id=":3_3_0" index="0" speed="19.44" length="0.10" shape="200.00,-8.00 200.00,-8.00"/>
        <lane id=":3_3_1" index="1" speed="19.44" length="0.10" shape="200.00,-4.80 200.00,-4.80"/>
        <lane id=":3_3_2" index="2" speed="19.44" length="0.10" shape="200.00,-1.60 200.00,-1.60"/>
    </edge>
    <edge id=":5_0" function="internal">
        <lane id=":5_0_0" index="0" speed="19.44" length="0.10" shape="-8.00,-100.00 -8.00,-100.00"/>
        <lane id=":5_0_1" index="1" speed="19.44" length="0.10" shape="-4.80,-100.00 -4.80,-100.00"/>
        <lane id=":5_0_2" index="2" speed="19.44" length="0.10" shape="-1.60,-100.00 -1.60,-100.00"/>
    </edge>
    <edge id=":5_3" function="internal">
        <lane id=":5_3_0" index="0" speed="19.44" length="0.10" shape="8.00,-100.00 8.00,-100.00"/>
        <lane id=":5_3_1" index="1" speed="19.44" length="0.10" shape="4.80,-100.00 4.80,-100.00"/>
        <lane id=":5_3_2" index="2" speed="19.44" length="0.10" shape="1.60,-100.00 1.60,-100.00"/>
    </edge>
    <edge id=":7_0" function="internal">
        <lane id=":7_0_0" index="0" speed="19.44" length="0.10" shape="-200.00,8.00 -200.00,8.00"/>
        <lane id=":7_0_1" index="1" speed="19.44" length="0.10" shape="-200.00,4.80 -200.00,4.80"/>
        <lane id=":7_0_2" index="2" speed="19.44" length="0.10" shape="-200.00,1.60 -200.00,1.60"/>
    </edge>
    <edge id=":7_3" function="internal">
        <lane id=":7_3_0" index="0" speed="19.44" length="0.10" shape="-200.00,-8.00 -200.00,-8.00"/>
        <lane id=":7_3_1" index="1" speed="19.44" length="0.10" shape="-200.00,-4.80 -200.00,-4.80"/>
        <lane id=":7_3_2" index="2" speed="19.44" length="0.10" shape="-200.00,-1.60 -200.00,-1.60"/>
    </edge>

    <edge id="-e01" from="1" to="0" priority="-1">
        <lane id="-e01_0" index="0" speed="19.44" length="186.40" shape="-8.00,200.00 -8.00,13.60"/>
        <lane id="-e01_1" index="1" speed="19.44" length="186.40" shape="-4.80,200.00 -4.80,13.60"/>
        <lane id="-e01_2" index="2" speed="19.44" length="186.40" shape="-1.60,200.00 -1.60,13.60"/>
    </edge>
    <edge id="-e03" from="3" to="0" priority="-1">
        <lane id="-e03_0" index="0" speed="19.44" length="186.40" shape="200.00,8.00 13.60,8.00"/>
        <lane id="-e03_1" index="1" speed="19.44" length="186.40" shape="200.00,4.80 13.60,4.80"/>
        <lane id="-e03_2" index="2" speed="19.44" length="186.40" shape="200.00,1.60 13.60,1.60"/>
    </edge>
    <edge id="-e05" from="5" to="0" priority="-1">
        <lane id="-e05_0" index="0" speed="19.44" length="86.40" shape="8.00,-100.00 8.00,-13.60"/>
        <lane id="-e05_1" index="1" speed="19.44" length="86.40" shape="4.80,-100.00 4.80,-13.60"/>
        <lane id="-e05_2" index="2" speed="19.44" length="86.40" shape="1.60,-100.00 1.60,-13.60"/>
    </edge>
    <edge id="-e07" from="7" to="0" priority="-1">
        <lane id="-e07_0" index="0" speed="19.44" length="186.40" shape="-200.00,-8.00 -13.60,-8.00"/>
        <lane id="-e07_1" index="1" speed="19.44" length="186.40" shape="-200.00,-4.80 -13.60,-4.80"/>
        <lane id="-e07_2" index="2" speed="19.44" length="186.40" shape="-200.00,-1.60 -13.60,-1.60"/>
    </edge>
    <edge id="-e12" from="2" to="1" priority="-1">
        <lane id="-e12_0" index="0" speed="19.44" length="300.00" shape="-8.00,500.00 -8.00,200.00"/>
        <lane id="-e12_1" index="1" speed="19.44" length="300.00" shape="-4.80,500.00 -4.80,200.00"/>
        <lane id="-e12_2" index="2" speed="19.44" length="300.00" shape="-1.60,500.00 -1.60,200.00"/>
    </edge>
    <edge id="-e34" from="4" to="3" priority="-1">
        <lane id="-e34_0" index="0" speed="19.44" length="300.00" shape="500.00,8.00 200.00,8.00"/>
        <lane id="-e34_1" index="1" speed="19.44" length="300.00" shape="500.00,4.80 200.00,4.80"/>
        <lane id="-e34_2" index="2" speed="19.44" length="300.00" shape="500.00,1.60 200.00,1.60"/>
    </edge>
    <edge id="-e56" from="6" to="5" priority="-1">
        <lane id="-e56_0" index="0" speed="19.44" length="400.00" shape="8.00,-500.00 8.00,-100.00"/>
        <lane id="-e56_1" index="1" speed="19.44" length="400.00" shape="4.80,-500.00 4.80,-100.00"/>
        <lane id="-e56_2" index="2" speed="19.44" length="400.00" shape="1.60,-500.00 1.60,-100.00"/>
    </edge>
    <edge id="-e78" from="8" to="7" priority="-1">
        <lane id="-e78_0" index="0" speed="19.44" length="300.00" shape="-500.00,-8.00 -200.00,-8.00"/>
        <lane id="-e78_1" index="1" speed="19.44" length="300.00" shape="-500.00,-4.80 -200.00,-4.80"/>
        <lane id="-e78_2" index="2" speed="19.44" length="300.00" shape="-500.00,-1.60 -200.00,-1.60"/>
    </edge>
    <edge id="e01" from="0" to="1" priority="-1">
        <lane id="e01_0" index="0" speed="19.44" length="186.40" shape="8.00,13.60 8.00,200.00"/>
        <lane id="e01_1" index="1" speed="19.44" length="186.40" shape="4.80,13.60 4.80,200.00"/>
        <lane id="e01_2" index="2" speed="19.44" length="186.40" shape="1.60,13.60 1.60,200.00"/>
    </edge>
    <edge id="e03" from="0" to="3" priority="-1">
        <lane id="e03_0" index="0" speed="19.44" length="186.40" shape="13.60,-8.00 200.00,-8.00"/>
        <lane id="e03_1" index="1" speed="19.44" length="186.40" shape="13.60,-4.80 200.00,-4.80"/>
        <lane id="e03_2" index="2" speed="19.44" length="186.40" shape="13.60,-1.60 200.00,-1.60"/>
    </edge>
    <edge id="e05" from="0" to="5" priority="-1">
        <lane id="e05_0" index="0" speed="19.44" length="86.40" shape="-8.00,-13.60 -8.00,-100.00"/>
        <lane id="e05_1" index="1" speed="19.44" length="86.40" shape="-4.80,-13.60 -4.80,-100.00"/>
        <lane id="e05_2" index="2" speed="19.44" length="86.40" shape="-1.60,-13.60 -1.60,-100.00"/>
    </edge>
    <edge id="e07" from="0" to="7" priority="-1">
        <lane id="e07_0" index="0" speed="19.44" length="186.40" shape="-13.60,8.00 -200.00,8.00"/>
        <lane id="e07_1" index="1" speed="19.44" length="186.40" shape="-13.60,4.80 -200.00,4.80"/>
        <lane id="e07_2" index="2" speed="19.44" length="186.40" shape="-13.60,1.60 -200.00,1.60"/>
    </edge>
    <edge id="e12" from="1" to="2" priority="-1">
        <lane id="e12_0" index="0" speed="19.44" length="300.00" shape="8.00,200.00 8.00,500.00"/>
        <lane id="e12_1" index="1" speed="19.44" length="300.00" shape="4.80,200.00 4.80,500.00"/>
        <lane id="e12_2" index="2" speed="19.44" length="300.00" shape="1.60,200.00 1.60,500.00"/>
    </edge>
    <edge id="e34" from="3" to="4" priority="-1">
        <lane id="e34_0" index="0" speed="19.44" length="300.00" shape="200.00,-8.00 500.00,-8.00"/>
        <lane id="e34_1" index="1" speed="19.44" length="300.00" shape="200.00,-4.80 500.00,-4.80"/>
        <lane id="e34_2" index="2" speed="19.44" length="300.00" shape="200.00,-1.60 500.00,-1.60"/>
    </edge>
    <edge id="e56" from="5" to="6" priority="-1">
        <lane id="e56_0" index="0" speed="19.44" length="400.00" shape="-8.00,-100.00 -8.00,-500.00"/>
        <lane id="e56_1" index="1" speed="19.44" length="400.00" shape="-4.80,-100.00 -4.80,-500.00"/>
        <lane id="e56_2" index="2" speed="19.44" length="400.00" shape="-1.60,-100.00 -1.60,-500.00"/>
    </edge>
    <edge id="e78" from="7" to="8" priority="-1">
        <lane id="e78_0" index="0" speed="19.44" length="300.00" shape="-200.00,8.00 -500.00,8.00"/>
        <lane id="e78_1" index="1" speed="19.44" length="300.00" shape="-200.00,4.80 -500.00,4.80"/>
        <lane id="e78_2" index="2" speed="19.44" length="300.00" shape="-200.00,1.60 -500.00,1.60"/>
    </edge>

    <tlLogic id="0" type="static" programID="0" offset="0">
        <phase duration="33" state="GGGrrrrrGGGrrrrr"/>
        <phase duration="3"  state="yyyrrrrryyyrrrrr"/>
        <phase duration="10" state="rrrGrrrrrrrGrrrr"/>
        <phase duration="3"  state="rrryrrrrrrryrrrr"/>
        <phase duration="33" state="rrrrGGGrrrrrGGGr"/>
        <phase duration="3"  state="rrrryyyrrrrryyyr"/>
        <phase duration="6"  state="rrrrrrrGrrrrrrrG"/>
        <phase duration="3"  state="rrrrrrryrrrrrrry"/>
    </tlLogic>

    <junction id="0" type="traffic_light" x="0.00" y="0.00" incLanes="-e01_0 -e01_1 -e01_2 -e03_0 -e03_1 -e03_2 -e05_0 -e05_1 -e05_2 -e07_0 -e07_1 -e07_2" intLanes=":0_0_0 :0_1_0 :0_1_1 :0_3_0 :0_4_0 :0_5_0 :0_5_1 :0_7_0 :0_8_0 :0_9_0 :0_9_1 :0_11_0 :0_12_0 :0_13_0 :0_13_1 :0_15_0" shape="-9.60,13.60 9.60,13.60 10.04,11.38 10.60,10.60 11.38,10.04 12.38,9.71 13.60,9.60 13.60,-9.60 11.38,-10.04 10.60,-10.60 10.04,-11.38 9.71,-12.38 9.60,-13.60 -9.60,-13.60 -10.04,-11.38 -10.60,-10.60 -11.38,-10.04 -12.38,-9.71 -13.60,-9.60 -13.60,9.60 -11.38,10.04 -10.60,10.60 -10.04,11.38 -9.71,12.38">
        <request index="0"  response="0000000000000000" foes="0000000001100000" cont="0"/>
        <request index="1"  response="0000000000000000" foes="1111100001100000" cont="0"/>
        <request index="2"  response="0000000000000000" foes="1111100001100000" cont="0"/>
        <request index="3"  response="0000011000000000" foes="1000011011100000" cont="0"/>
        <request index="4"  response="0000011000000000" foes="0000011000000000" cont="0"/>
        <request index="5"  response="0000011000001111" foes="1000011000001111" cont="0"/>
        <request index="6"  response="0000011000001111" foes="1000011000001111" cont="0"/>
        <request index="7"  response="0110111000001000" foes="0110111000001000" cont="0"/>
        <request index="8"  response="0000000000000000" foes="0110000000000000" cont="0"/>
        <request index="9"  response="0000000000000000" foes="0110000011111000" cont="0"/>
        <request index="10" response="0000000000000000" foes="0110000011111000" cont="0"/>
        <request index="11" response="0000000000000110" foes="1110000010000110" cont="0"/>
        <request index="12" response="0000000000000110" foes="0000000000000110" cont="0"/>
        <request index="13" response="0000111100000110" foes="0000111110000110" cont="0"/>
        <request index="14" response="0000111100000110" foes="0000111110000110" cont="0"/>
        <request index="15" response="0000100001101110" foes="0000100001101110" cont="0"/>
    </junction>
    <junction id="1" type="priority" x="0.00" y="200.00" incLanes="-e12_0 -e12_1 -e12_2 e01_0 e01_1 e01_2" intLanes=":1_0_0 :1_0_1 :1_0_2 :1_3_0 :1_3_1 :1_3_2" shape="-9.60,200.00 9.60,200.00 -9.60,200.00">
        <request index="0" response="000000" foes="000000" cont="0"/>
        <request index="1" response="000000" foes="000000" cont="0"/>
        <request index="2" response="000000" foes="000000" cont="0"/>
        <request index="3" response="000000" foes="000000" cont="0"/>
        <request index="4" response="000000" foes="000000" cont="0"/>
        <request index="5" response="000000" foes="000000" cont="0"/>
    </junction>
    <junction id="2" type="dead_end" x="0.00" y="500.00" incLanes="e12_0 e12_1 e12_2" intLanes="" shape="0.00,500.00 9.60,500.00 0.00,500.00"/>
    <junction id="3" type="priority" x="200.00" y="0.00" incLanes="-e34_0 -e34_1 -e34_2 e03_0 e03_1 e03_2" intLanes=":3_0_0 :3_0_1 :3_0_2 :3_3_0 :3_3_1 :3_3_2" shape="200.00,9.60 200.00,-9.60 200.00,9.60">
        <request index="0" response="000000" foes="000000" cont="0"/>
        <request index="1" response="000000" foes="000000" cont="0"/>
        <request index="2" response="000000" foes="000000" cont="0"/>
        <request index="3" response="000000" foes="000000" cont="0"/>
        <request index="4" response="000000" foes="000000" cont="0"/>
        <request index="5" response="000000" foes="000000" cont="0"/>
    </junction>
    <junction id="4" type="dead_end" x="500.00" y="0.00" incLanes="e34_0 e34_1 e34_2" intLanes="" shape="500.00,0.00 500.00,-9.60 500.00,0.00"/>
    <junction id="5" type="priority" x="0.00" y="-200.00" incLanes="e05_0 e05_1 e05_2 -e56_0 -e56_1 -e56_2" intLanes=":5_0_0 :5_0_1 :5_0_2 :5_3_0 :5_3_1 :5_3_2" shape="-9.60,-100.00 9.60,-100.00 -9.60,-100.00" customShape="1">
        <request index="0" response="000000" foes="000000" cont="0"/>
        <request index="1" response="000000" foes="000000" cont="0"/>
        <request index="2" response="000000" foes="000000" cont="0"/>
        <request index="3" response="000000" foes="000000" cont="0"/>
        <request index="4" response="000000" foes="000000" cont="0"/>
        <request index="5" response="000000" foes="000000" cont="0"/>
    </junction>
    <junction id="6" type="dead_end" x="0.00" y="-500.00" incLanes="e56_0 e56_1 e56_2" intLanes="" shape="0.00,-500.00 -9.60,-500.00 0.00,-500.00"/>
    <junction id="7" type="priority" x="-200.00" y="0.00" incLanes="e07_0 e07_1 e07_2 -e78_0 -e78_1 -e78_2" intLanes=":7_0_0 :7_0_1 :7_0_2 :7_3_0 :7_3_1 :7_3_2" shape="-200.00,9.60 -200.00,-9.60 -200.00,9.60">
        <request index="0" response="000000" foes="000000" cont="0"/>
        <request index="1" response="000000" foes="000000" cont="0"/>
        <request index="2" response="000000" foes="000000" cont="0"/>
        <request index="3" response="000000" foes="000000" cont="0"/>
        <request index="4" response="000000" foes="000000" cont="0"/>
        <request index="5" response="000000" foes="000000" cont="0"/>
    </junction>
    <junction id="8" type="dead_end" x="-500.00" y="0.00" incLanes="e78_0 e78_1 e78_2" intLanes="" shape="-500.00,0.00 -500.00,9.60 -500.00,0.00"/>

    <connection from="-e01" to="e07" fromLane="0" toLane="0" via=":0_0_0" tl="0" linkIndex="0" dir="r" state="O"/>
    <connection from="-e01" to="e05" fromLane="0" toLane="0" via=":0_1_0" tl="0" linkIndex="1" dir="s" state="O"/>
    <connection from="-e01" to="e05" fromLane="1" toLane="1" via=":0_1_1" tl="0" linkIndex="2" dir="s" state="O"/>
    <connection from="-e01" to="e03" fromLane="2" toLane="2" via=":0_3_0" tl="0" linkIndex="3" dir="l" state="o"/>
    <connection from="-e03" to="e01" fromLane="0" toLane="0" via=":0_4_0" tl="0" linkIndex="4" dir="r" state="o"/>
    <connection from="-e03" to="e07" fromLane="0" toLane="0" via=":0_5_0" tl="0" linkIndex="5" dir="s" state="o"/>
    <connection from="-e03" to="e07" fromLane="1" toLane="1" via=":0_5_1" tl="0" linkIndex="6" dir="s" state="o"/>
    <connection from="-e03" to="e05" fromLane="2" toLane="2" via=":0_7_0" tl="0" linkIndex="7" dir="l" state="o"/>
    <connection from="-e05" to="e03" fromLane="0" toLane="0" via=":0_8_0" tl="0" linkIndex="8" dir="r" state="O"/>
    <connection from="-e05" to="e01" fromLane="0" toLane="0" via=":0_9_0" tl="0" linkIndex="9" dir="s" state="O"/>
    <connection from="-e05" to="e01" fromLane="1" toLane="1" via=":0_9_1" tl="0" linkIndex="10" dir="s" state="O"/>
    <connection from="-e05" to="e07" fromLane="2" toLane="2" via=":0_11_0" tl="0" linkIndex="11" dir="l" state="o"/>
    <connection from="-e07" to="e05" fromLane="0" toLane="0" via=":0_12_0" tl="0" linkIndex="12" dir="r" state="o"/>
    <connection from="-e07" to="e03" fromLane="0" toLane="0" via=":0_13_0" tl="0" linkIndex="13" dir="s" state="o"/>
    <connection from="-e07" to="e03" fromLane="1" toLane="1" via=":0_13_1" tl="0" linkIndex="14" dir="s" state="o"/>
    <connection from="-e07" to="e01" fromLane="2" toLane="2" via=":0_15_0" tl="0" linkIndex="15" dir="l" state="o"/>
    <connection from="-e12" to="-e01" fromLane="0" toLane="0" via=":1_0_0" dir="s" state="M"/>
    <connection from="-e12" to="-e01" fromLane="1" toLane="1" via=":1_0_1" dir="s" state="M"/>
    <connection from="-e12" to="-e01" fromLane="2" toLane="2" via=":1_0_2" dir="s" state="M"/>
    <connection from="-e34" to="-e03" fromLane="0" toLane="0" via=":3_0_0" dir="s" state="M"/>
    <connection from="-e34" to="-e03" fromLane="1" toLane="1" via=":3_0_1" dir="s" state="M"/>
    <connection from="-e34" to="-e03" fromLane="2" toLane="2" via=":3_0_2" dir="s" state="M"/>
    <connection from="-e56" to="-e05" fromLane="0" toLane="0" via=":5_3_0" dir="s" state="M"/>
    <connection from="-e56" to="-e05" fromLane="1" toLane="1" via=":5_3_1" dir="s" state="M"/>
    <connection from="-e56" to="-e05" fromLane="2" toLane="2" via=":5_3_2" dir="s" state="M"/>
    <connection from="-e78" to="-e07" fromLane="0" toLane="0" via=":7_3_0" dir="s" state="M"/>
    <connection from="-e78" to="-e07" fromLane="1" toLane="1" via=":7_3_1" dir="s" state="M"/>
    <connection from="-e78" to="-e07" fromLane="2" toLane="2" via=":7_3_2" dir="s" state="M"/>
    <connection from="e01" to="e12" fromLane="0" toLane="0" via=":1_3_0" dir="s" state="M"/>
    <connection from="e01" to="e12" fromLane="1" toLane="1" via=":1_3_1" dir="s" state="M"/>
    <connection from="e01" to="e12" fromLane="2" toLane="2" via=":1_3_2" dir="s" state="M"/>
    <connection from="e03" to="e34" fromLane="0" toLane="0" via=":3_3_0" dir="s" state="M"/>
    <connection from="e03" to="e34" fromLane="1" toLane="1" via=":3_3_1" dir="s" state="M"/>
    <connection from="e03" to="e34" fromLane="2" toLane="2" via=":3_3_2" dir="s" state="M"/>
    <connection from="e05" to="e56" fromLane="0" toLane="0" via=":5_0_0" dir="s" state="M"/>
    <connection from="e05" to="e56" fromLane="1" toLane="1" via=":5_0_1" dir="s" state="M"/>
    <connection from="e05" to="e56" fromLane="2" toLane="2" via=":5_0_2" dir="s" state="M"/>
    <connection from="e07" to="e78" fromLane="0" toLane="0" via=":7_0_0" dir="s" state="M"/>
    <connection from="e07" to="e78" fromLane="1" toLane="1" via=":7_0_1" dir="s" state="M"/>
    <connection from="e07" to="e78" fromLane="2" toLane="2" via=":7_0_2" dir="s" state="M"/>

    <connection from=":0_0" to="e07" fromLane="0" toLane="0" dir="r" state="M"/>
    <connection from=":0_1" to="e05" fromLane="0" toLane="0" dir="s" state="M"/>
    <connection from=":0_1" to="e05" fromLane="1" toLane="1" dir="s" state="M"/>
    <connection from=":0_3" to="e03" fromLane="0" toLane="2" dir="l" state="M"/>
    <connection from=":0_4" to="e01" fromLane="0" toLane="0" dir="r" state="M"/>
    <connection from=":0_5" to="e07" fromLane="0" toLane="0" dir="s" state="M"/>
    <connection from=":0_5" to="e07" fromLane="1" toLane="1" dir="s" state="M"/>
    <connection from=":0_7" to="e05" fromLane="0" toLane="2" dir="l" state="M"/>
    <connection from=":0_8" to="e03" fromLane="0" toLane="0" dir="r" state="M"/>
    <connection from=":0_9" to="e01" fromLane="0" toLane="0" dir="s" state="M"/>
    <connection from=":0_9" to="e01" fromLane="1" toLane="1" dir="s" state="M"/>
    <connection from=":0_11" to="e07" fromLane="0" toLane="2" dir="l" state="M"/>
    <connection from=":0_12" to="e05" fromLane="0" toLane="0" dir="r" state="M"/>
    <connection from=":0_13" to="e03" fromLane="0" toLane="0" dir="s" state="M"/>
    <connection from=":0_13" to="e03" fromLane="1" toLane="1" dir="s" state="M"/>
    <connection from=":0_15" to="e01" fromLane="0" toLane="2" dir="l" state="M"/>
    <connection from=":1_0" to="-e01" fromLane="0" toLane="0" dir="s" state="M"/>
    <connection from=":1_0" to="-e01" fromLane="1" toLane="1" dir="s" state="M"/>
    <connection from=":1_0" to="-e01" fromLane="2" toLane="2" dir="s" state="M"/>
    <connection from=":1_3" to="e12" fromLane="0" toLane="0" dir="s" state="M"/>
    <connection from=":1_3" to="e12" fromLane="1" toLane="1" dir="s" state="M"/>
    <connection from=":1_3" to="e12" fromLane="2" toLane="2" dir="s" state="M"/>
    <connection from=":3_0" to="-e03" fromLane="0" toLane="0" dir="s" state="M"/>
    <connection from=":3_0" to="-e03" fromLane="1" toLane="1" dir="s" state="M"/>
    <connection from=":3_0" to="-e03" fromLane="2" toLane="2" dir="s" state="M"/>
    <connection from=":3_3" to="e34" fromLane="0" toLane="0" dir="s" state="M"/>
    <connection from=":3_3" to="e34" fromLane="1" toLane="1" dir="s" state="M"/>
    <connection from=":3_3" to="e34" fromLane="2" toLane="2" dir="s" state="M"/>
    <connection from=":5_0" to="e56" fromLane="0" toLane="0" dir="s" state="M"/>
    <connection from=":5_0" to="e56" fromLane="1" toLane="1" dir="s" state="M"/>
    <connection from=":5_0" to="e56" fromLane="2" toLane="2" dir="s" state="M"/>
    <connection from=":5_3" to="-e05" fromLane="0" toLane="0" dir="s" state="M"/>
    <connection from=":5_3" to="-e05" fromLane="1" toLane="1" dir="s" state="M"/>
    <connection from=":5_3" to="-e05" fromLane="2" toLane="2" dir="s" state="M"/>
    <connection from=":7_0" to="e78" fromLane="0" toLane="0" dir="s" state="M"/>
    <connection from=":7_0" to="e78" fromLane="1" toLane="1" dir="s" state="M"/>
    <connection from=":7_0" to="e78" fromLane="2" toLane="2" dir="s" state="M"/>
    <connection from=":7_3" to="-e07" fromLane="0" toLane="0" dir="s" state="M"/>
    <connection from=":7_3" to="-e07" fromLane="1" toLane="1" dir="s" state="M"/>
    <connection from=":7_3" to="-e07" fromLane="2" toLane="2" dir="s" state="M"/>

</net>
