<routes>
        <vType id="car" accel="0.8" decel="4.5" sigma="0.5" length="5" minGap="2.5" maxSpeed="16.67" guiShape="passenger"/>
        <route id="right" edges="51o 1i 2o 52i" />
        <route id="left" edges="52o 2i 1o 51i" />
        <route id="down" edges="54o 4i 3o 53i" />
        <route id="up" edges="53o 3i 4o 54i" />
    <vehicle id="left_0" type="car" route="left" depart="7" />
    <vehicle id="left_1" type="car" route="left" depart="12" />
    <vehicle id="left_2" type="car" route="left" depart="17" />
    <vehicle id="right_3" type="car" route="right" depart="18" />
    <vehicle id="right_4" type="car" route="right" depart="65" />
    <vehicle id="right_5" type="car" route="right" depart="73" />
    <vehicle id="right_6" type="car" route="right" depart="74" />
    <vehicle id="right_7" type="car" route="right" depart="88" />
    <vehicle id="right_8" type="car" route="right" depart="90" />
    <vehicle id="left_9" type="car" route="left" depart="105" />
    <vehicle id="right_10" type="car" route="right" depart="107" />
    <vehicle id="right_11" type="car" route="right" depart="117" />
    <vehicle id="left_12" type="car" route="left" depart="122" />
    <vehicle id="right_13" type="car" route="right" depart="132" />
    <vehicle id="right_14" type="car" route="right" depart="136" />
    <vehicle id="left_15" type="car" route="left" depart="147" />
    <vehicle id="UP_16" type="car" route="down" depart="160" color="1,0,0"/>
    <vehicle id="right_17" type="car" route="right" depart="162" />
    <vehicle id="left_18" type="car" route="left" depart="162" />
    <vehicle id="left_19" type="car" route="left" depart="166" />
    <vehicle id="UP_20" type="car" route="down" depart="171" color="1,0,0"/>
    <vehicle id="down_21" type="car" route="up" depart="172" color="1,0,0"/>
    <vehicle id="UP_22" type="car" route="down" depart="174" color="1,0,0"/>
    <vehicle id="down_23" type="car" route="up" depart="178" color="1,0,0"/>
    <vehicle id="left_24" type="car" route="left" depart="192" />
    <vehicle id="left_25" type="car" route="left" depart="217" />
    <vehicle id="left_26" type="car" route="left" depart="241" />
    <vehicle id="right_27" type="car" route="right" depart="242" />
    <vehicle id="left_28" type="car" route="left" depart="245" />
    <vehicle id="down_29" type="car" route="up" depart="282" color="1,0,0"/>
    <vehicle id="down_30" type="car" route="up" depart="288" color="1,0,0"/>
    <vehicle id="right_31" type="car" route="right" depart="289" />
    <vehicle id="left_32" type="car" route="left" depart="292" />
    <vehicle id="left_33" type="car" route="left" depart="303" />
    <vehicle id="left_34" type="car" route="left" depart="321" />
    <vehicle id="right_35" type="car" route="right" depart="335" />
    <vehicle id="left_36" type="car" route="left" depart="338" />
    <vehicle id="left_37" type="car" route="left" depart="360" />
    <vehicle id="left_38" type="car" route="left" depart="362" />
    <vehicle id="right_39" type="car" route="right" depart="363" />
    <vehicle id="right_40" type="car" route="right" depart="369" />
    <vehicle id="left_41" type="car" route="left" depart="385" />
    <vehicle id="right_42" type="car" route="right" depart="413" />
    <vehicle id="down_43" type="car" route="up" depart="421" color="1,0,0"/>
    <vehicle id="right_44" type="car" route="right" depart="423" />
    <vehicle id="right_45" type="car" route="right" depart="428" />
    <vehicle id="UP_46" type="car" route="down" depart="436" color="1,0,0"/>
    <vehicle id="left_47" type="car" route="left" depart="443" />
    <vehicle id="left_48" type="car" route="left" depart="447" />
    <vehicle id="left_49" type="car" route="left" depart="453" />
    <vehicle id="left_50" type="car" route="left" depart="458" />
    <vehicle id="right_51" type="car" route="right" depart="460" />
    <vehicle id="right_52" type="car" route="right" depart="463" />
    <vehicle id="down_53" type="car" route="up" depart="467" color="1,0,0"/>
    <vehicle id="left_54" type="car" route="left" depart="473" />
    <vehicle id="left_55" type="car" route="left" depart="478" />
    <vehicle id="left_56" type="car" route="left" depart="497" />
    <vehicle id="right_57" type="car" route="right" depart="501" />
    <vehicle id="left_58" type="car" route="left" depart="525" />
    <vehicle id="left_59" type="car" route="left" depart="528" />
    <vehicle id="right_60" type="car" route="right" depart="529" />
    <vehicle id="down_61" type="car" route="up" depart="533" color="1,0,0"/>
    <vehicle id="down_62" type="car" route="up" depart="546" color="1,0,0"/>
    <vehicle id="right_63" type="car" route="right" depart="550" />
    <vehicle id="right_64" type="car" route="right" depart="562" />
    <vehicle id="left_65" type="car" route="left" depart="586" />
    <vehicle id="right_66" type="car" route="right" depart="588" />
    <vehicle id="right_67" type="car" route="right" depart="607" />
    <vehicle id="right_68" type="car" route="right" depart="608" />
    <vehicle id="right_69" type="car" route="right" depart="609" />
    <vehicle id="left_70" type="car" route="left" depart="611" />
    <vehicle id="UP_71" type="car" route="down" depart="618" color="1,0,0"/>
    <vehicle id="right_72" type="car" route="right" depart="625" />
    <vehicle id="right_73" type="car" route="right" depart="627" />
    <vehicle id="left_74" type="car" route="left" depart="645" />
    <vehicle id="right_75" type="car" route="right" depart="646" />
    <vehicle id="left_76" type="car" route="left" depart="657" />
    <vehicle id="left_77" type="car" route="left" depart="662" />
    <vehicle id="right_78" type="car" route="right" depart="664" />
    <vehicle id="right_79" type="car" route="right" depart="665" />
    <vehicle id="right_80" type="car" route="right" depart="673" />
    <vehicle id="left_81" type="car" route="left" depart="677" />
    <vehicle id="left_82" type="car" route="left" depart="682" />
    <vehicle id="left_83" type="car" route="left" depart="694" />
    <vehicle id="down_84" type="car" route="up" depart="702" color="1,0,0"/>
    <vehicle id="right_85" type="car" route="right" depart="706" />
    <vehicle id="left_86" type="car" route="left" depart="706" />
    <vehicle id="down_87" type="car" route="up" depart="708" color="1,0,0"/>
    <vehicle id="left_88" type="car" route="left" depart="717" />
    <vehicle id="left_89" type="car" route="left" depart="750" />
    <vehicle id="down_90" type="car" route="up" depart="750" color="1,0,0"/>
    <vehicle id="UP_91" type="car" route="down" depart="800" color="1,0,0"/>
    <vehicle id="left_92" type="car" route="left" depart="801" />
    <vehicle id="left_93" type="car" route="left" depart="805" />
    <vehicle id="left_94" type="car" route="left" depart="827" />
    <vehicle id="down_95" type="car" route="up" depart="833" color="1,0,0"/>
    <vehicle id="down_96" type="car" route="up" depart="836" color="1,0,0"/>
    <vehicle id="right_97" type="car" route="right" depart="856" />
    <vehicle id="left_98" type="car" route="left" depart="856" />
    <vehicle id="left_99" type="car" route="left" depart="875" />
    <vehicle id="right_100" type="car" route="right" depart="888" />
    <vehicle id="UP_101" type="car" route="down" depart="890" color="1,0,0"/>
    <vehicle id="right_102" type="car" route="right" depart="893" />
    <vehicle id="left_103" type="car" route="left" depart="904" />
    <vehicle id="left_104" type="car" route="left" depart="907" />
    <vehicle id="left_105" type="car" route="left" depart="912" />
    <vehicle id="left_106" type="car" route="left" depart="913" />
    <vehicle id="UP_107" type="car" route="down" depart="923" color="1,0,0"/>
    <vehicle id="left_108" type="car" route="left" depart="926" />
    <vehicle id="right_109" type="car" route="right" depart="934" />
    <vehicle id="left_110" type="car" route="left" depart="944" />
    <vehicle id="right_111" type="car" route="right" depart="947" />
    <vehicle id="down_112" type="car" route="up" depart="960" color="1,0,0"/>
    <vehicle id="right_113" type="car" route="right" depart="970" />
    <vehicle id="right_114" type="car" route="right" depart="975" />
    <vehicle id="right_115" type="car" route="right" depart="976" />
    <vehicle id="UP_116" type="car" route="down" depart="981" color="1,0,0"/>
    <vehicle id="left_117" type="car" route="left" depart="1006" />
    <vehicle id="left_118" type="car" route="left" depart="1010" />
    <vehicle id="left_119" type="car" route="left" depart="1025" />
    <vehicle id="left_120" type="car" route="left" depart="1026" />
    <vehicle id="UP_121" type="car" route="down" depart="1035" color="1,0,0"/>
    <vehicle id="UP_122" type="car" route="down" depart="1037" color="1,0,0"/>
    <vehicle id="down_123" type="car" route="up" depart="1053" color="1,0,0"/>
    <vehicle id="right_124" type="car" route="right" depart="1055" />
    <vehicle id="left_125" type="car" route="left" depart="1058" />
    <vehicle id="down_126" type="car" route="up" depart="1059" color="1,0,0"/>
    <vehicle id="left_127" type="car" route="left" depart="1062" />
    <vehicle id="right_128" type="car" route="right" depart="1066" />
    <vehicle id="left_129" type="car" route="left" depart="1076" />
    <vehicle id="right_130" type="car" route="right" depart="1090" />
    <vehicle id="UP_131" type="car" route="down" depart="1098" color="1,0,0"/>
    <vehicle id="left_132" type="car" route="left" depart="1100" />
    <vehicle id="right_133" type="car" route="right" depart="1103" />
    <vehicle id="right_134" type="car" route="right" depart="1108" />
    <vehicle id="right_135" type="car" route="right" depart="1120" />
    <vehicle id="right_136" type="car" route="right" depart="1160" />
    <vehicle id="left_137" type="car" route="left" depart="1162" />
    <vehicle id="right_138" type="car" route="right" depart="1166" />
    <vehicle id="right_139" type="car" route="right" depart="1168" />
    <vehicle id="right_140" type="car" route="right" depart="1178" />
    <vehicle id="right_141" type="car" route="right" depart="1180" />
    <vehicle id="left_142" type="car" route="left" depart="1196" />
    <vehicle id="left_143" type="car" route="left" depart="1205" />
    <vehicle id="right_144" type="car" route="right" depart="1228" />
    <vehicle id="left_145" type="car" route="left" depart="1229" />
    <vehicle id="left_146" type="car" route="left" depart="1230" />
    <vehicle id="down_147" type="car" route="up" depart="1232" color="1,0,0"/>
    <vehicle id="right_148" type="car" route="right" depart="1254" />
    <vehicle id="down_149" type="car" route="up" depart="1254" color="1,0,0"/>
    <vehicle id="right_150" type="car" route="right" depart="1263" />
    <vehicle id="right_151" type="car" route="right" depart="1272" />
    <vehicle id="UP_152" type="car" route="down" depart="1278" color="1,0,0"/>
    <vehicle id="left_153" type="car" route="left" depart="1283" />
    <vehicle id="left_154" type="car" route="left" depart="1292" />
    <vehicle id="left_155" type="car" route="left" depart="1339" />
    <vehicle id="right_156" type="car" route="right" depart="1362" />
    <vehicle id="left_157" type="car" route="left" depart="1370" />
    <vehicle id="left_158" type="car" route="left" depart="1396" />
    <vehicle id="left_159" type="car" route="left" depart="1398" />
    <vehicle id="right_160" type="car" route="right" depart="1409" />
    <vehicle id="UP_161" type="car" route="down" depart="1420" color="1,0,0"/>
    <vehicle id="left_162" type="car" route="left" depart="1425" />
    <vehicle id="left_163" type="car" route="left" depart="1434" />
    <vehicle id="left_164" type="car" route="left" depart="1439" />
    <vehicle id="right_165" type="car" route="right" depart="1446" />
    <vehicle id="down_166" type="car" route="up" depart="1449" color="1,0,0"/>
    <vehicle id="right_167" type="car" route="right" depart="1450" />
    <vehicle id="right_168" type="car" route="right" depart="1456" />
    <vehicle id="left_169" type="car" route="left" depart="1464" />
    <vehicle id="right_170" type="car" route="right" depart="1465" />
    <vehicle id="right_171" type="car" route="right" depart="1474" />
    <vehicle id="right_172" type="car" route="right" depart="1477" />
    <vehicle id="left_173" type="car" route="left" depart="1489" />
    <vehicle id="right_174" type="car" route="right" depart="1495" />
    <vehicle id="down_175" type="car" route="up" depart="1497" color="1,0,0"/>
    <vehicle id="down_176" type="car" route="up" depart="1499" color="1,0,0"/>
    <vehicle id="left_177" type="car" route="left" depart="1505" />
    <vehicle id="left_178" type="car" route="left" depart="1515" />
    <vehicle id="left_179" type="car" route="left" depart="1522" />
    <vehicle id="right_180" type="car" route="right" depart="1537" />
    <vehicle id="UP_181" type="car" route="down" depart="1539" color="1,0,0"/>
    <vehicle id="right_182" type="car" route="right" depart="1544" />
    <vehicle id="right_183" type="car" route="right" depart="1572" />
    <vehicle id="UP_184" type="car" route="down" depart="1576" color="1,0,0"/>
    <vehicle id="left_185" type="car" route="left" depart="1597" />
    <vehicle id="right_186" type="car" route="right" depart="1601" />
    <vehicle id="left_187" type="car" route="left" depart="1616" />
    <vehicle id="left_188" type="car" route="left" depart="1620" />
    <vehicle id="left_189" type="car" route="left" depart="1630" />
    <vehicle id="right_190" type="car" route="right" depart="1633" />
    <vehicle id="down_191" type="car" route="up" depart="1635" color="1,0,0"/>
    <vehicle id="right_192" type="car" route="right" depart="1638" />
    <vehicle id="right_193" type="car" route="right" depart="1642" />
    <vehicle id="left_194" type="car" route="left" depart="1646" />
    <vehicle id="left_195" type="car" route="left" depart="1658" />
    <vehicle id="right_196" type="car" route="right" depart="1675" />
    <vehicle id="left_197" type="car" route="left" depart="1678" />
    <vehicle id="left_198" type="car" route="left" depart="1689" />
    <vehicle id="left_199" type="car" route="left" depart="1690" />
    <vehicle id="right_200" type="car" route="right" depart="1712" />
    <vehicle id="right_201" type="car" route="right" depart="1727" />
    <vehicle id="left_202" type="car" route="left" depart="1727" />
    <vehicle id="left_203" type="car" route="left" depart="1730" />
    <vehicle id="left_204" type="car" route="left" depart="1733" />
    <vehicle id="right_205" type="car" route="right" depart="1735" />
    <vehicle id="right_206" type="car" route="right" depart="1738" />
    <vehicle id="left_207" type="car" route="left" depart="1739" />
    <vehicle id="down_208" type="car" route="up" depart="1739" color="1,0,0"/>
    <vehicle id="right_209" type="car" route="right" depart="1742" />
    <vehicle id="right_210" type="car" route="right" depart="1755" />
    <vehicle id="right_211" type="car" route="right" depart="1756" />
    <vehicle id="UP_212" type="car" route="down" depart="1779" color="1,0,0"/>
    <vehicle id="down_213" type="car" route="up" depart="1782" color="1,0,0"/>
    <vehicle id="left_214" type="car" route="left" depart="1794" />
    <vehicle id="right_215" type="car" route="right" depart="1795" />
    <vehicle id="right_216" type="car" route="right" depart="1800" />
    <vehicle id="left_217" type="car" route="left" depart="1804" />
    <vehicle id="left_218" type="car" route="left" depart="1810" />
    <vehicle id="left_219" type="car" route="left" depart="1811" />
    <vehicle id="right_220" type="car" route="right" depart="1815" />
    <vehicle id="left_221" type="car" route="left" depart="1819" />
    <vehicle id="UP_222" type="car" route="down" depart="1823" color="1,0,0"/>
    <vehicle id="UP_223" type="car" route="down" depart="1827" color="1,0,0"/>
    <vehicle id="down_224" type="car" route="up" depart="1831" color="1,0,0"/>
    <vehicle id="right_225" type="car" route="right" depart="1837" />
    <vehicle id="left_226" type="car" route="left" depart="1845" />
    <vehicle id="UP_227" type="car" route="down" depart="1860" color="1,0,0"/>
    <vehicle id="right_228" type="car" route="right" depart="1861" />
    <vehicle id="right_229" type="car" route="right" depart="1863" />
    <vehicle id="right_230" type="car" route="right" depart="1873" />
    <vehicle id="right_231" type="car" route="right" depart="1886" />
    <vehicle id="down_232" type="car" route="up" depart="1890" color="1,0,0"/>
    <vehicle id="right_233" type="car" route="right" depart="1891" />
    <vehicle id="left_234" type="car" route="left" depart="1896" />
    <vehicle id="left_235" type="car" route="left" depart="1910" />
    <vehicle id="left_236" type="car" route="left" depart="1913" />
    <vehicle id="left_237" type="car" route="left" depart="1927" />
    <vehicle id="right_238" type="car" route="right" depart="1929" />
    <vehicle id="left_239" type="car" route="left" depart="1931" />
    <vehicle id="left_240" type="car" route="left" depart="1932" />
    <vehicle id="UP_241" type="car" route="down" depart="1937" color="1,0,0"/>
    <vehicle id="right_242" type="car" route="right" depart="1953" />
    <vehicle id="right_243" type="car" route="right" depart="1957" />
    <vehicle id="left_244" type="car" route="left" depart="1960" />
    <vehicle id="left_245" type="car" route="left" depart="1963" />
    <vehicle id="left_246" type="car" route="left" depart="1967" />
    <vehicle id="left_247" type="car" route="left" depart="1995" />
    <vehicle id="left_248" type="car" route="left" depart="2002" />
    <vehicle id="right_249" type="car" route="right" depart="2016" />
    <vehicle id="left_250" type="car" route="left" depart="2021" />
    <vehicle id="UP_251" type="car" route="down" depart="2025" color="1,0,0"/>
    <vehicle id="right_252" type="car" route="right" depart="2036" />
    <vehicle id="left_253" type="car" route="left" depart="2048" />
    <vehicle id="left_254" type="car" route="left" depart="2053" />
    <vehicle id="right_255" type="car" route="right" depart="2063" />
    <vehicle id="left_256" type="car" route="left" depart="2067" />
    <vehicle id="right_257" type="car" route="right" depart="2069" />
    <vehicle id="left_258" type="car" route="left" depart="2079" />
    <vehicle id="left_259" type="car" route="left" depart="2090" />
    <vehicle id="left_260" type="car" route="left" depart="2092" />
    <vehicle id="UP_261" type="car" route="down" depart="2112" color="1,0,0"/>
    <vehicle id="left_262" type="car" route="left" depart="2114" />
    <vehicle id="right_263" type="car" route="right" depart="2117" />
    <vehicle id="down_264" type="car" route="up" depart="2118" color="1,0,0"/>
    <vehicle id="down_265" type="car" route="up" depart="2119" color="1,0,0"/>
    <vehicle id="right_266" type="car" route="right" depart="2131" />
    <vehicle id="down_267" type="car" route="up" depart="2133" color="1,0,0"/>
    <vehicle id="left_268" type="car" route="left" depart="2147" />
    <vehicle id="right_269" type="car" route="right" depart="2161" />
    <vehicle id="right_270" type="car" route="right" depart="2167" />
    <vehicle id="right_271" type="car" route="right" depart="2181" />
    <vehicle id="UP_272" type="car" route="down" depart="2182" color="1,0,0"/>
    <vehicle id="left_273" type="car" route="left" depart="2184" />
    <vehicle id="left_274" type="car" route="left" depart="2188" />
    <vehicle id="UP_275" type="car" route="down" depart="2191" color="1,0,0"/>
    <vehicle id="down_276" type="car" route="up" depart="2203" color="1,0,0"/>
    <vehicle id="right_277" type="car" route="right" depart="2204" />
    <vehicle id="right_278" type="car" route="right" depart="2215" />
    <vehicle id="right_279" type="car" route="right" depart="2219" />
    <vehicle id="left_280" type="car" route="left" depart="2223" />
    <vehicle id="right_281" type="car" route="right" depart="2234" />
    <vehicle id="UP_282" type="car" route="down" depart="2235" color="1,0,0"/>
    <vehicle id="UP_283" type="car" route="down" depart="2248" color="1,0,0"/>
    <vehicle id="left_284" type="car" route="left" depart="2250" />
    <vehicle id="right_285" type="car" route="right" depart="2257" />
    <vehicle id="left_286" type="car" route="left" depart="2269" />
    <vehicle id="left_287" type="car" route="left" depart="2278" />
    <vehicle id="right_288" type="car" route="right" depart="2282" />
    <vehicle id="left_289" type="car" route="left" depart="2282" />
    <vehicle id="left_290" type="car" route="left" depart="2289" />
    <vehicle id="left_291" type="car" route="left" depart="2291" />
    <vehicle id="left_292" type="car" route="left" depart="2304" />
    <vehicle id="right_293" type="car" route="right" depart="2309" />
    <vehicle id="left_294" type="car" route="left" depart="2334" />
    <vehicle id="right_295" type="car" route="right" depart="2343" />
    <vehicle id="right_296" type="car" route="right" depart="2353" />
    <vehicle id="left_297" type="car" route="left" depart="2353" />
    <vehicle id="left_298" type="car" route="left" depart="2366" />
    <vehicle id="left_299" type="car" route="left" depart="2367" />
    <vehicle id="right_300" type="car" route="right" depart="2380" />
    <vehicle id="right_301" type="car" route="right" depart="2386" />
    <vehicle id="right_302" type="car" route="right" depart="2387" />
    <vehicle id="left_303" type="car" route="left" depart="2403" />
    <vehicle id="right_304" type="car" route="right" depart="2416" />
    <vehicle id="left_305" type="car" route="left" depart="2418" />
    <vehicle id="left_306" type="car" route="left" depart="2425" />
    <vehicle id="left_307" type="car" route="left" depart="2427" />
    <vehicle id="right_308" type="car" route="right" depart="2434" />
    <vehicle id="left_309" type="car" route="left" depart="2460" />
    <vehicle id="UP_310" type="car" route="down" depart="2466" color="1,0,0"/>
    <vehicle id="right_311" type="car" route="right" depart="2471" />
    <vehicle id="right_312" type="car" route="right" depart="2500" />
    <vehicle id="right_313" type="car" route="right" depart="2504" />
    <vehicle id="left_314" type="car" route="left" depart="2509" />
    <vehicle id="right_315" type="car" route="right" depart="2510" />
    <vehicle id="right_316" type="car" route="right" depart="2523" />
    <vehicle id="UP_317" type="car" route="down" depart="2524" color="1,0,0"/>
    <vehicle id="left_318" type="car" route="left" depart="2532" />
    <vehicle id="right_319" type="car" route="right" depart="2544" />
    <vehicle id="UP_320" type="car" route="down" depart="2558" color="1,0,0"/>
    <vehicle id="right_321" type="car" route="right" depart="2567" />
    <vehicle id="right_322" type="car" route="right" depart="2579" />
    <vehicle id="left_323" type="car" route="left" depart="2579" />
    <vehicle id="right_324" type="car" route="right" depart="2586" />
    <vehicle id="right_325" type="car" route="right" depart="2603" />
    <vehicle id="left_326" type="car" route="left" depart="2605" />
    <vehicle id="right_327" type="car" route="right" depart="2614" />
    <vehicle id="down_328" type="car" route="up" depart="2623" color="1,0,0"/>
    <vehicle id="left_329" type="car" route="left" depart="2625" />
    <vehicle id="right_330" type="car" route="right" depart="2627" />
    <vehicle id="right_331" type="car" route="right" depart="2630" />
    <vehicle id="left_332" type="car" route="left" depart="2669" />
    <vehicle id="UP_333" type="car" route="down" depart="2671" color="1,0,0"/>
    <vehicle id="right_334" type="car" route="right" depart="2681" />
    <vehicle id="right_335" type="car" route="right" depart="2693" />
    <vehicle id="left_336" type="car" route="left" depart="2693" />
    <vehicle id="down_337" type="car" route="up" depart="2695" color="1,0,0"/>
    <vehicle id="UP_338" type="car" route="down" depart="2700" color="1,0,0"/>
    <vehicle id="right_339" type="car" route="right" depart="2704" />
    <vehicle id="right_340" type="car" route="right" depart="2706" />
    <vehicle id="right_341" type="car" route="right" depart="2720" />
    <vehicle id="down_342" type="car" route="up" depart="2721" color="1,0,0"/>
    <vehicle id="down_343" type="car" route="up" depart="2737" color="1,0,0"/>
    <vehicle id="right_344" type="car" route="right" depart="2746" />
    <vehicle id="left_345" type="car" route="left" depart="2748" />
    <vehicle id="left_346" type="car" route="left" depart="2757" />
    <vehicle id="left_347" type="car" route="left" depart="2775" />
    <vehicle id="right_348" type="car" route="right" depart="2778" />
    <vehicle id="right_349" type="car" route="right" depart="2781" />
    <vehicle id="left_350" type="car" route="left" depart="2791" />
    <vehicle id="right_351" type="car" route="right" depart="2826" />
    <vehicle id="left_352" type="car" route="left" depart="2837" />
    <vehicle id="right_353" type="car" route="right" depart="2838" />
    <vehicle id="left_354" type="car" route="left" depart="2848" />
    <vehicle id="left_355" type="car" route="left" depart="2867" />
    <vehicle id="UP_356" type="car" route="down" depart="2871" color="1,0,0"/>
    <vehicle id="left_357" type="car" route="left" depart="2873" />
    <vehicle id="right_358" type="car" route="right" depart="2889" />
    <vehicle id="left_359" type="car" route="left" depart="2895" />
    <vehicle id="right_360" type="car" route="right" depart="2919" />
    <vehicle id="left_361" type="car" route="left" depart="2921" />
    <vehicle id="left_362" type="car" route="left" depart="2940" />
    <vehicle id="left_363" type="car" route="left" depart="2942" />
    <vehicle id="down_364" type="car" route="up" depart="2957" color="1,0,0"/>
    <vehicle id="left_365" type="car" route="left" depart="2997" />
    <vehicle id="right_366" type="car" route="right" depart="3000" />
    <vehicle id="left_367" type="car" route="left" depart="3007" />
    <vehicle id="left_368" type="car" route="left" depart="3026" />
    <vehicle id="right_369" type="car" route="right" depart="3031" />
    <vehicle id="left_370" type="car" route="left" depart="3052" />
    <vehicle id="left_371" type="car" route="left" depart="3058" />
    <vehicle id="right_372" type="car" route="right" depart="3078" />
    <vehicle id="left_373" type="car" route="left" depart="3079" />
    <vehicle id="right_374" type="car" route="right" depart="3085" />
    <vehicle id="left_375" type="car" route="left" depart="3090" />
    <vehicle id="down_376" type="car" route="up" depart="3105" color="1,0,0"/>
    <vehicle id="UP_377" type="car" route="down" depart="3119" color="1,0,0"/>
    <vehicle id="left_378" type="car" route="left" depart="3120" />
    <vehicle id="left_379" type="car" route="left" depart="3124" />
    <vehicle id="right_380" type="car" route="right" depart="3127" />
    <vehicle id="left_381" type="car" route="left" depart="3127" />
    <vehicle id="right_382" type="car" route="right" depart="3137" />
    <vehicle id="left_383" type="car" route="left" depart="3140" />
    <vehicle id="right_384" type="car" route="right" depart="3161" />
    <vehicle id="right_385" type="car" route="right" depart="3172" />
    <vehicle id="right_386" type="car" route="right" depart="3173" />
    <vehicle id="down_387" type="car" route="up" depart="3176" color="1,0,0"/>
    <vehicle id="left_388" type="car" route="left" depart="3186" />
    <vehicle id="right_389" type="car" route="right" depart="3191" />
    <vehicle id="left_390" type="car" route="left" depart="3194" />
    <vehicle id="left_391" type="car" route="left" depart="3195" />
    <vehicle id="left_392" type="car" route="left" depart="3198" />
    <vehicle id="right_393" type="car" route="right" depart="3201" />
    <vehicle id="left_394" type="car" route="left" depart="3201" />
    <vehicle id="left_395" type="car" route="left" depart="3222" />
    <vehicle id="left_396" type="car" route="left" depart="3225" />
    <vehicle id="right_397" type="car" route="right" depart="3228" />
    <vehicle id="right_398" type="car" route="right" depart="3229" />
    <vehicle id="right_399" type="car" route="right" depart="3230" />
    <vehicle id="right_400" type="car" route="right" depart="3233" />
    <vehicle id="right_401" type="car" route="right" depart="3235" />
    <vehicle id="left_402" type="car" route="left" depart="3241" />
    <vehicle id="right_403" type="car" route="right" depart="3252" />
    <vehicle id="left_404" type="car" route="left" depart="3255" />
    <vehicle id="left_405" type="car" route="left" depart="3260" />
    <vehicle id="left_406" type="car" route="left" depart="3263" />
    <vehicle id="UP_407" type="car" route="down" depart="3279" color="1,0,0"/>
    <vehicle id="left_408" type="car" route="left" depart="3289" />
    <vehicle id="right_409" type="car" route="right" depart="3294" />
    <vehicle id="left_410" type="car" route="left" depart="3295" />
    <vehicle id="right_411" type="car" route="right" depart="3303" />
    <vehicle id="left_412" type="car" route="left" depart="3305" />
    <vehicle id="left_413" type="car" route="left" depart="3306" />
    <vehicle id="left_414" type="car" route="left" depart="3310" />
    <vehicle id="left_415" type="car" route="left" depart="3323" />
    <vehicle id="UP_416" type="car" route="down" depart="3337" color="1,0,0"/>
    <vehicle id="left_417" type="car" route="left" depart="3349" />
    <vehicle id="right_418" type="car" route="right" depart="3358" />
    <vehicle id="right_419" type="car" route="right" depart="3364" />
    <vehicle id="down_420" type="car" route="up" depart="3368" color="1,0,0"/>
    <vehicle id="left_421" type="car" route="left" depart="3383" />